$GROWTH ASPECTS OUTPUT FILE

*DSSAT Cropping System Model Ver. 4.7.5.007 -release  JUN 22, 2021 11:17:23

*RUN   1        : [1] INOS (INOS0001.WTH)   CSCER047 UAVA1901    1
 MODEL          : CSCER047 - Wheat
 EXPERIMENT     : UAVA1901 WH TRIGO PANDORA ROTACION
 DATA PATH      : C:\DSSAT47\SensWork\
 TREATMENT  1   : [1] INOS (INOS0001.WTH)   CSCER047
  
@YEAR DOY   DAS   DAP TMEAN TKILL  GSTD  L#SD PARID PARUD  AWAD  LAID  SAID  CAID  TWAD SDWAD  RWAD  CWAD  LWAD  SWAD  HWAD  HIAD CHWAD  EWAD RSWAD SNWPD SNWLD SNWSD  RS%D  H#AD  HWUD  T#AD  SLAD  RDPD  PTFD  SWXD WAVRD WUPRD  WFTD  WFPD  WFGD  NFTD  NFPD  NFGD NUPRD  TFPD  TFGD VRNFD DYLFD
 2000 228    15     0   9.1  -6.0  0.00  0.00  0.00  0.00   0.0  0.00 0.000  0.00   142   142     0     0     0     0     0  0.00     0     0     0     0     0     0   0.0     0     0   500   -99  0.02  0.00   7.7  99.9  1.00  0.00  0.00  0.00  0.00  0.00  0.00   0.0  0.00  0.09  0.50  0.00
 2000 229    16     1  10.6  -6.0  4.77  0.00  0.00  0.00   0.0  0.00 0.000  0.00   142   142     0     0     0     0     0  0.00     0     0     0     0     0     0   0.0     0     0   500   -99  0.02  0.00   7.5  99.9  1.00  0.00  0.00  0.00  0.00  0.00  0.00   0.0  0.00  0.00  0.50  0.00
 2000 230    17     2  10.0  -6.0  7.66  0.00  0.00  0.00   0.0  0.00 0.000  0.00   142   142     0     0     0     0     0  0.00     0     0     0     0     0     0   0.0     0     0   500   -99  0.02  0.00   7.4  99.9  1.00  0.00  0.00  0.00  0.00  0.00  0.00   0.0  0.00  0.00  0.50  0.00
 2000 231    18     3  11.6  -6.0 10.00  0.00  0.00  0.00   0.0  0.00 0.000  0.00   142   141     1     0     0     0     0  0.00     0     0     0     0     0     0   0.0     0     0   500   -99  0.04  0.00  14.6  99.9  1.00  0.00  0.00  0.00  0.00  0.00  0.00   0.0  0.00  0.00  0.46  0.00
 2000 232    19     4  11.1  -6.0 10.23  0.23  0.03  0.00   0.0  0.03 0.004  0.04   142   123     2    17    11     6     0  0.00     0     0     0     0     0 .0005   0.0     0     0   500   300  0.05  0.75  21.1  99.9  1.00  0.00  0.00  0.00  0.00  0.00  0.00   0.0  0.00  0.00  0.41  0.39
 2000 233    20     5  10.4  -6.0 10.44  0.44  0.05  2.78   2.3  0.07 0.008  0.07   144   107     3    35    22    13     0  0.00     0     0     2     0     0 .0014   4.9     0     0   500   298  0.07  0.75  25.4  99.9  1.88  0.00  0.00  0.00  0.00  0.00  0.00   0.0  0.00  0.00  0.35  0.38
 2000 234    21     6   9.4  -6.0 10.63  0.63  0.08  2.78   2.5  0.09 0.011  0.10   146    93     3    50    31    19     0  0.00     0     0     4     0     0 .0026   7.1     0     0   500   298  0.08  0.75  30.3  99.9  2.56  0.00  0.00  0.00  0.00  0.00  0.00   0.0  0.00  0.06  0.28  0.38
 2000 235    22     7  13.0  -6.0 10.90  0.90  0.09  1.80   7.5  0.11 0.013  0.13   153    83     5    66    38    28     0  0.00     0     0     9     0     0 .0047  13.7     0     0   500   298  0.10  0.72  37.0  99.9  0.65  0.71  0.35  0.50  0.00  0.00  0.00   0.0  0.00  0.00  0.26  0.38
 2000 236    23     8  10.0  -6.0 11.10  1.10  0.11  2.27  11.1  0.13 0.015  0.15   163    73     6    84    45    39     0  0.00     0     0    17     0     0 .0069  20.5     0     0   500   297  0.12  0.74  42.1  99.9  0.82  0.36  0.18  0.37  0.00  0.00  0.00   0.0  0.00  0.00  0.19  0.37
 2000 237    24     9  11.9  -6.0 11.34  1.34  0.13  2.78  11.5  0.17 0.020  0.19   173    60     8   106    58    48     0  0.00     0     0    19     0     0 .0106  18.4     0     0   500   296  0.14  0.76  48.2  99.9  1.30  0.00  0.00  0.00  0.00  0.00  0.00   0.0  0.00  0.00  0.15  0.37
 2000 238    25    10   7.8  -6.2 11.50  1.50  0.15  2.78  18.9  0.19 0.022  0.21   190    54    11   126    63    63     0  0.00     0     0    31     0     0 .0137  24.8     0     0   500   295  0.15  0.76  53.6  99.9  1.11  0.00  0.00  0.14  0.00  0.00  0.00   0.0  0.00  0.23  0.06  0.36
 2000 239    26    11   7.1  -6.4 11.64  1.64  0.16  2.78  13.5  0.20 0.024  0.23   203    49    13   141    69    72     0  0.00     0     0    38     0     0 .0175  26.7     0     0   500   294  0.16  0.76  59.0  99.9  2.15  0.00  0.00  0.00  0.00  0.00  0.00   0.0  0.00  0.29  0.00  0.36
 2000 240    27    12   5.2  -6.8 11.75  1.75  0.16  2.78  22.7  0.21 0.025  0.24   223    46    16   161    72    89     0  0.00     0     0    53     0     0 .0207  33.0     0     0   500   294  0.17  0.76  62.7  99.9  1.58  0.00  0.00  0.00  0.00  0.00  0.00   0.0  0.00  0.49  0.00  0.36
 2000 241    28    13   8.8  -6.9 11.93  1.93  0.18  2.78  19.2  0.24 0.028  0.26   240    43    19   179    80    99     0  0.00     0     0    59     0     0 .0277  32.8     0     0   500   294  0.18  0.76  67.6  99.9  2.16  0.00  0.00  0.00  0.00  0.00  0.00   0.0  0.00  0.12  0.00  0.35
 2000 242    29    14   7.2  -7.1 12.04  2.04  0.19  2.78   5.8  0.25 0.029  0.28   246    40    20   186    85   101     0  0.00     0     0    59     0     0 .0345  31.7     0     0   500   293  0.19  0.76  73.0  99.9  8.71  0.00  0.00  0.00  0.00  0.00  0.00   0.0  0.00  0.27  0.00  0.35
 2000 243    30    15   6.2  -7.4 12.10  2.10  0.20  2.78  39.2  0.26 0.030  0.29   281    38    25   218    87   130     0  0.00     0     0    87     0     0 .0406  40.0     0     0   500   292  0.20  0.76  72.2  99.9  1.37  0.00  0.00  0.00  0.00  0.00  0.00   0.0  0.00  0.38  0.00  0.35
 2000 244    31    16   6.2  -7.7 12.17  2.17  0.20  2.78  29.8  0.26 0.031  0.29   308    37    29   242    90   152     0  0.00     0     0   108     0     0 .0485  44.6     0     0   500   292  0.21  0.76  74.7  99.9  2.32  0.00  0.00  0.00  0.00  0.00  0.00   0.0  0.00  0.38  0.00  0.34
 2000 245    32    17   8.8  -7.8 12.25  2.25  0.21  2.78  31.4  0.28 0.033  0.31   336    35    34   268    94   173     0  0.00     0     0   127     0     0 .0613  47.3     0     0   500   291  0.22  0.76  75.6  99.9  2.44  0.00  0.00  0.00  0.00  0.00  0.00   0.0  0.00  0.12  0.00  0.34
 2000 246    33    18   4.7  -8.2 12.30  2.30  0.21  2.61  42.2  0.28 0.033  0.31   375    34    40   301    96   205     0  0.00     0     0   158     0     0 .0693  52.4     0     0   500   291  0.22  0.76  75.9  99.9  2.14  0.00  0.00  0.00  0.00  0.00  0.00   0.0  0.06  0.53  0.00  0.33
 2000 247    34    19   6.1  -8.5 12.36  2.36  0.22  2.78  40.2  0.29 0.034  0.32   411    33    46   332    98   234     0  0.00     0     0   186     0     0 .0815  55.9     0     0   500   291  0.23  0.76  76.5  99.9  2.71  0.00  0.00  0.00  0.00  0.00  0.00   0.0  0.00  0.39  0.00  0.33
 2000 248    35    20   7.3  -8.7 12.44  2.44  0.22  2.78  42.5  0.29 0.035  0.33   449    32    52   365   101   264     0  0.00     0     0   214     0     0 .0981  58.6     0     0   500   290  0.24  0.76  75.5  99.9  2.85  0.00  0.00  0.00  0.00  0.00  0.00   0.0  0.00  0.27  0.00  0.33
 2000 249    36    21   7.6  -8.8 12.52  2.52  0.23  2.78  18.7  0.30 0.036  0.34   466    32    54   380   105   276     0  0.00     0     0   224     0     0 0.118  58.8     0     0   500   290  0.25  0.76  76.4  99.9  7.27  0.00  0.00  0.00  0.00  0.00  0.00   0.0  0.00  0.24  0.00  0.32
 2000 250    37    22   9.5  -8.9 12.61  2.61  0.24  2.78  23.7  0.32 0.038  0.36   488    31    58   399   111   289     0  0.00     0     0   234     0     0 0.144  58.7     0     0   500   289  0.26  0.76  88.5  99.9  5.89  0.00  0.00  0.00  0.00  0.00  0.00   0.0  0.00  0.05  0.00  0.32
 2000 251    38    23   4.4  -9.3 12.66  2.66  0.24  2.44  36.0  0.32 0.039  0.36   520    31    63   427   112   315     0  0.00     0     0   260     0     0 0.156  61.0     0     0   500   288  0.26  0.77  85.1  99.9  4.07  0.00  0.00  0.00  0.00  0.00  0.00   0.0  0.12  0.56  0.00  0.32
 2000 252    39    24   3.6  -9.7 12.70  2.70  0.24  2.00  14.4  0.32 0.039  0.36   533    30    65   438   113   326     0  0.00     0     0   271     0     0 0.168  61.7     0     0   500   288  0.26  0.77  89.9  99.9  9.56  0.00  0.00  0.00  0.00  0.00  0.00   0.0  0.28  0.64  0.00  0.31
 2000 253    40    25   3.9 -10.0 12.74  2.74  0.24  2.19  28.3  0.33 0.039  0.37   559    30    69   460   114   347     0  0.00     0     0   291     0     0 0.180  63.2     0     0   500   288  0.27  0.77  91.3  99.9  5.43  0.00  0.00  0.00  0.00  0.00  0.00   0.0  0.21  0.61  0.00  0.31
 2000 254    41    26   5.4 -10.0 12.79  2.79  0.25  2.78  41.5  0.33 0.040  0.37   597    30    74   492   116   377     0  0.00     0     0   320     0     0 0.199  65.1     0     0   500   288  0.27  0.77  89.8  99.9  4.67  0.00  0.00  0.00  0.00  0.00  0.00   0.0  0.00  0.46  0.00  0.30
 2000 255    42    27   3.7 -10.0 12.83  2.83  0.25  2.06  15.7  0.33 0.040  0.37   611    30    77   505   116   388     0  0.00     0     0   331     0     0 0.213  65.6     0     0   500   288  0.28  0.77  88.5  99.9 10.43  0.00  0.00  0.00  0.00  0.00  0.00   0.0  0.26  0.63  0.00  0.30
 2000 256    43    28   6.1 -10.0 12.89  2.89  0.25  2.78  59.8  0.34 0.041  0.38   665    30    85   551   119   432     0  0.00     0     0   374     0     0 0.236  67.9     0     0   500   287  0.28  0.77  88.8  99.9  3.54  0.00  0.00  0.00  0.00  0.00  0.00   0.0  0.00  0.39  0.00  0.30
 2000 257    44    29   5.9 -10.0 12.95  2.95  0.26  2.78  62.6  0.35 0.042  0.39   722    29    94   599   121   478     0  0.00     0     0   419     0     0 0.262  69.9     0     0   500   287  0.29  0.77  89.0  99.9  3.75  0.00  0.00  0.00  0.00  0.00  0.00   0.0  0.00  0.41  0.00  0.29
 2000 258    45    30   6.9 -10.0 13.02  3.02  0.26  2.78  23.8  0.36 0.043  0.40   743    29    97   617   124   493     0  0.00     0     0   433     0     0 0.294  70.1     0     0   500   287  0.30  0.77  92.6  99.9 10.74  0.00  0.00  0.00  0.00  0.00  0.00   0.0  0.00  0.31  0.00  0.29
 2000 259    46    31   8.9 -10.0 13.11  3.11  0.27  2.78  56.1  0.37 0.045  0.41   794    29   105   661   129   532     0  0.00     0     0   468     0     0 0.337  70.9     0     0   545   286  0.31  0.77  97.8  99.9  4.43  0.00  0.00  0.00  0.00  0.00  0.00   0.0  0.00  0.11  0.00  0.29
 2000 260    47    32   5.1 -10.0 13.17  3.17  0.27  2.78  11.6  0.37 0.045  0.42   805    29   106   670   131   539     0  0.00     0     0   475     0     0 0.363  70.9     0     0   571   285  0.31  0.77 102.4  99.9 15.00  0.00  0.00  0.00  0.00  0.00  0.00   0.0  0.00  0.50  0.00  0.28
 2000 261    48    33  11.2 -10.0 13.28  3.28  0.29  2.78  29.5  0.40 0.048  0.44   832    29   110   693   139   553     0  0.00     0     0   485     0     0 0.423  70.0     0     0   629   284  0.32  0.77 104.9  99.9  8.82  0.00  0.00  0.00  0.00  0.00  0.00   0.0  0.00  0.00  0.00  0.28
 2000 262    49    34  10.8 -10.0 13.39  3.39  0.30  2.78  35.8  0.42 0.051  0.47   864    29   115   720   148   572     0  0.00     0     0   500     0     0 0.482  69.4     0     0   683   283  0.34  0.77 103.7  99.9  7.61  0.00  0.00  0.00  0.00  0.00  0.00   0.0  0.00  0.00  0.00  0.28
 2000 263    50    35  10.2 -10.0 13.49  3.49  0.31  2.78  34.6  0.44 0.054  0.50   895    29   120   747   157   590     0  0.00     0     0   513     0     0 0.541  68.7     0     0   736   282  0.35  0.77 105.1  99.9  8.34  0.00  0.00  0.00  0.00  0.00  0.00   0.0  0.00  0.00  0.00  0.27
 2000 264    51    36  11.2 -10.0 13.61  3.61  0.33  2.78  74.1  0.47 0.058  0.53   963    29   130   805   167   637     0  0.00     0     0   555     0     0 0.609  69.0     0     0   793   281  0.36  0.77 109.2  99.9  3.96  0.00  0.00  0.00  0.00  0.00  0.00   0.0  0.00  0.00  0.00  0.27
 2000 265    52    37   9.3 -10.0 13.70  3.70  0.34  2.78  22.0  0.49 0.061  0.55   983    29   132   822   176   646     0  0.00     0     0   559     0     0 0.669  68.0     0     0   841   280  0.37  0.78 113.9  99.9 15.00  0.00  0.00  0.00  0.00  0.00  0.00   0.0  0.00  0.07  0.00  0.26
 2000 266    53    38  11.2 -10.0 13.82  3.82  0.36  2.78  57.0  0.52 0.065  0.59  1035    28   140   866   187   679     0  0.00     0     0   586     0     0 0.743  67.6     0     0   898   280  0.38  0.78 114.2  99.9  5.71  0.00  0.00  0.00  0.00  0.00  0.00   0.0  0.00  0.00  0.00  0.26
 2000 267    54    39   9.1 -10.0 13.91  3.91  0.37  2.78  84.3  0.55 0.068  0.62  1111    28   151   931   196   735     0  0.00     0     0   637     0     0 0.807  68.4     0     0   944   279  0.39  0.78 111.0  99.9  4.29  0.00  0.00  0.00  0.00  0.00  0.00   0.0  0.00  0.09  0.00  0.26
 2000 268    55    40   8.1 -10.0 13.99  3.99  0.38  2.78  87.3  0.57 0.071  0.64  1191    28   163   999   204   796     0  0.00     0     0   694     0     0 0.868  69.4     0     0   985   278  0.40  0.78 109.6  99.9  4.54  0.00  0.00  0.00  0.00  0.00  0.00   0.0  0.00  0.19  0.00  0.25
 2000 269    56    41  10.4 -10.0 21.08  4.10  0.40  2.78  30.3  0.60 0.075  0.68  1218    28   167  1023   217   806     0  0.00     0     0   698     0     0 0.952  68.2     0     0  1038   277  0.41  0.78 110.6  99.9 13.42  0.00  0.00  0.00  0.00  0.00  0.00   0.0  0.00  0.00  0.00  0.25
 2000 270    57    42  13.9 -10.0 21.22  4.24  0.42  2.78  80.0  0.65 0.083  0.73  1287    28   177  1081   236   845     0  0.00     0     0   725     0 4.472 1.068  67.1     0     0  1109   276  0.42  0.78 111.0  99.9  4.78  0.00  0.00  0.00  0.00  0.00  0.00   0.0  0.00  0.00  0.00  0.25
 2000 271    58    43  12.9 -10.0 21.35  4.37  0.45  2.78  94.5  0.70 0.089  0.79  1369    28   189  1151   254   896     0  0.00     0     0   766     0 8.641 1.182  66.6     0     0  1174   274  0.43  0.78 111.0  93.9  4.41  0.00  0.00  0.00  0.00  0.00  0.00   0.0  0.00  0.00  0.00  0.24
 2000 272    59    44   9.3 -10.0 21.44  4.47  0.46  2.78  61.5  0.73 0.094  0.82  1422    28   197  1196   266   929     0  0.00     0     0   792     0 11.67 1.270  66.2     0     0  1222   273  0.44  0.78 111.7  99.9  7.94  0.00  0.00  0.00  0.00  0.00  0.00   0.0  0.00  0.07  0.00  0.24
 2000 273    60    45  11.1 -10.0 21.56  4.58  0.48  2.78 104.4  0.77 0.100  0.87  1513    28   211  1274   282   992     0  0.00     0     0   845     0 15.28 1.379  66.4     0     0  1278   272  0.45  0.78 110.1  88.2  4.65  0.00  0.00  0.00  0.00  0.00  0.00   0.0  0.00  0.00  0.00  0.24
 2000 274    61    46  11.4 -10.0 21.67  4.70  0.50  2.78 121.1  0.81 0.106  0.91  1620    28   226  1365   298  1067     0  0.00     0     0   911     0 19.02 1.500  66.7     0     0  1337   271  0.46  0.79 108.2  74.3  4.26  0.00  0.00  0.00  0.00  0.00  0.00   0.0  0.00  0.00  0.00  0.23
 2000 275    62    47  11.6 -10.0 21.79  4.82  0.51  2.78 149.1  0.85 0.112  0.96  1753    28   245  1479   315  1164     0  0.00     0     0   998     0 22.83 1.631  67.5     0     0  1396   270  0.47  0.79 106.1  58.7  3.68  0.00  0.00  0.00  0.00  0.00  0.00   0.0  0.00  0.00  0.00  0.23
 2000 276    63    48   9.7 -10.0 21.89  4.91  0.53  2.78 106.4  0.88 0.117  1.00  1847    28   259  1559   328  1231     0  0.00     0     0  1057     0 26.02 1.750  67.8     0     0  1445   269  0.47  0.79 109.5  90.0  5.93  0.00  0.00  0.00  0.00  0.00  0.00   0.0  0.00  0.03  0.00  0.23
 2000 277    64    49  11.1 -10.0 22.00  5.03  0.55  2.78  88.0  0.93 0.123  1.05  1923    28   270  1625   346  1279     0  0.00     0     0  1095     0 29.67 1.893  67.4     0     0  1502   268  0.48  0.79 112.7  99.9  7.32  0.00  0.00  0.00  0.00  0.00  0.00   0.0  0.00  0.00  0.00  0.22
 2000 278    65    50  10.9 -10.0 22.12  5.14  0.57  2.78 153.0  1.00 0.135  1.14  2060    28   289  1742   376  1366     0  0.00     0     0  1163     0 33.24 2.041  66.7     0     0  1558   266  0.49  0.79 110.4  61.1  4.39  0.00  0.00  0.00  0.00  0.00  0.00   0.0  0.00  0.00  0.00  0.22
 2000 279    66    51   8.3 -10.0 22.20  5.22  0.59  2.78  31.1  1.05 0.141  1.19  2085    28   293  1764   395  1369     0  0.00     0     0  1157     0 35.98 2.160  65.6     0     0  1600   265  0.50  0.79 119.5  99.9 15.00  0.00  0.00  0.00  0.00  0.00  0.00   0.0  0.00  0.17  0.00  0.22
 2000 280    67    52   8.8 -10.0 22.29  5.31  0.61  2.78 188.5  1.10 0.149  1.25  2255    28   316  1911   416  1494     0  0.00     0     0  1269     0 38.87 2.288  66.4     0     0  1645   264  0.51  0.79 117.7  54.7  4.00  0.00  0.00  0.00  0.00  0.00  0.00   0.0  0.00  0.12  0.00  0.21
 2000 281    68    53   9.1 -10.0 22.38  5.41  0.63  2.78 156.2  1.16 0.158  1.32  2395    28   335  2031   439  1592     0  0.00     0     0  1353     0 41.86 2.432  66.6     0     0  1691   264  0.51  0.79 124.5  69.6  5.20  0.00  0.00  0.00  0.00  0.00  0.00   0.0  0.00  0.09  0.00  0.21
 2000 282    69    54  10.1 -10.0 22.48  5.51  0.65  2.78  72.2  1.23 0.168  1.40  2458    28   344  2085   468  1618     0  0.00     0     0  1363     0 45.21 2.601  65.3     0     0  1742   262  0.52  0.79 125.1  99.9 11.84  0.00  0.00  0.00  0.00  0.00  0.00   0.0  0.00  0.00  0.00  0.21
 2000 283    70    55  11.2 -10.0 22.60  5.62  0.67  2.78 161.1  1.31 0.180  1.49  2602    28   364  2210   499  1710     0  0.00     0     0  1436     0 48.93 2.794  65.0     0     0  1799   261  0.53  0.79 124.1  65.2  5.32  0.00  0.00  0.00  0.00  0.00  0.00   0.0  0.00  0.00  0.00  0.20
 2000 284    71    56  10.3 -10.0 22.70  5.73  0.69  2.78 130.4  1.38 0.191  1.57  2718    28   380  2310   529  1781     0  0.00     0     0  1489     0 52.37 2.981  64.4     0     0  1852   261  0.54  0.80 125.1  82.4  7.05  0.00  0.00  0.00  0.00  0.00  0.00   0.0  0.00  0.00  0.00  0.20
 2000 285    72    57   9.3 -10.0 22.80  5.82  0.71  2.78  30.7  1.44 0.200  1.64  2743    28   383  2331   553  1778     0  0.00     0     0  1474     0 55.47 3.158  63.2     0     0  1899   260  0.55  0.80 142.3  99.9 15.00  0.00  0.00  0.00  0.00  0.00  0.00   0.0  0.00  0.07  0.00  0.20
 2000 286    73    58   7.4 -10.0 22.87  5.90  0.71  2.78 191.0  1.47 0.205  1.68  2916    28   406  2481   568  1913     0  0.00     0     0  1601     0 57.93 3.298  64.5     0     0  1937   259  0.56  0.80 141.8  68.7  5.46  0.00  0.00  0.00  0.00  0.00  0.00   0.0  0.00  0.26  0.00  0.20
 2000 287    74    59   9.1 -10.0 22.97  5.99  0.73  2.78  71.4  1.53 0.214  1.74  2978    28   415  2535   592  1944     0  0.00     0     0  1617     0 60.98 3.483  63.8     0     0  1983   259  0.56  0.80 141.3  99.9 14.90  0.00  0.00  0.00  0.00  0.00  0.00   0.0  0.00  0.09  0.00  0.19
 2000 288    75    60  10.8 -10.0 23.08  6.10  0.75  2.78 220.3  1.64 0.230  1.87  3179    28   441  2710   635  2075     0  0.00     0     0  1722     0 62.70 3.707  63.5     0     0  2039   258  0.57  0.80 135.6  51.4  4.62  0.00  0.00  0.00  0.00  0.00  0.00   0.0  0.00  0.00  0.00  0.00
 2000 289    76    61  12.5 -10.0 23.27  6.23  0.78  2.78 256.7  1.79 0.255  2.04  3413    28   471  2914   698  2216     0  0.00     0     0  1822     0 64.70 3.983  62.5     0     0  2134   256  0.58  0.80 133.4  41.8  4.06  0.00  0.00  0.00  0.00  0.00  0.00   0.0  0.00  0.00  0.00  0.00
 2000 290    77    62  12.1 -10.0 23.45  6.35  0.81  2.78 215.9  1.93 0.279  2.21  3610    28   496  3086   759  2326     0  0.00     0     0  1892     0 66.64 4.266  61.3     0     0  2226   255  0.60  0.80 131.8  49.7  5.22  0.00  0.00  0.00  0.00  0.00  0.00   0.0  0.00  0.00  0.00  0.00
 2000 291    78    63  10.4 -10.0 23.61  6.46  0.83  2.78 236.5  2.06 0.300  2.36  3826    28   523  3275   813  2462     0  0.00     0     0  1990     0 68.32 4.525  60.8     0     0  2306   253  0.60  0.81 129.9  46.2  5.19  0.00  0.00  0.00  0.00  0.00  0.00   0.0  0.00  0.00  0.00  0.00
 2000 292    79    64  13.0 -10.0 23.81  6.59  0.85  2.78 237.6  2.22 0.327  2.54  4043    28   550  3465   879  2586     0  0.00     0     0  2066     0 70.42 4.865  59.6     0     0  2406   252  0.61  0.81 127.5  42.6  5.14  0.00  0.00  0.00  0.00  0.00  0.00   0.0  0.00  0.00  0.00  0.00
 2000 293    80    65  12.4 -10.0 30.37  6.72  0.87  2.78 168.5  2.37 0.352  2.72  4197    28   569  3600   943  2657     0  0.00     0     0  2093     0 72.43 5.206  58.2     0     0  2501   251  0.63  0.81 126.3  60.9  7.79  0.00  0.00  0.00  0.00  0.00  0.00   0.0  0.00  0.00  0.00  0.00
 2000 294    81    66  10.8 -10.0 30.92  6.83  0.88  2.78 148.0  2.52 0.377  2.90  4332    28   585  3718  1008  2711     0  0.00     0     0  2105     0 74.18 5.512  56.6     0     0  2583   250  0.63  0.81 133.3  74.8  9.38  0.00  0.00  0.00  0.00  0.00  0.00   0.0  0.00  0.00  0.00  0.00
 2000 295    82    67  11.4 -10.0 31.51  6.94  0.90  2.78  14.7  2.68 0.399  3.08  4343    28   586  3728  1076  2652     0  0.00     0     0  2022     0 76.03 5.846  54.2     0     0  2670   249  0.64  0.82 155.2  99.9 15.00  0.00  0.00  0.00  0.00  0.00  0.00   0.0  0.00  0.00  0.00  0.00
 2000 296    83    68   9.4  -9.9 32.00  7.04  0.91  2.78 310.5  2.82 0.425  3.25  4629    28   620  3981  1137  2844     0  0.00     0     0  2163     0 77.57 6.121  54.3     0     0  2742   248  0.65  0.82 146.4  40.6  4.78  0.00  0.00  0.00  0.00  0.00  0.00   0.0  0.00  0.06  0.00  0.00
 2000 297    84    69  14.3  -9.5 32.74  7.18  0.93  2.78 337.2  3.09 0.475  3.56  4939    28   656  4255  1251  3004     0  0.00     0     0  2226     0 79.90 6.564  52.3     0     0  2852   247  0.66  0.82 143.4  32.2  4.10  0.00  0.00  0.00  0.00  0.00  0.00   0.0  0.00  0.00  0.00  0.00
 2000 298    85    70  14.8  -9.0 33.50  7.34  0.94  2.78 345.3  3.36 0.527  3.89  5257    28   692  4537  1371  3166     0  0.00     0     0  2287     0 82.33 7.050  50.4     0     0  2965   245  0.67  0.82 140.2  30.3  4.17  0.00  0.00  0.00  0.00  0.00  0.00   0.0  0.00  0.00  0.00  0.00
 2000 299    86    71  13.2  -8.4 34.19  7.47  0.95  2.78 301.1  3.61 0.574  4.18  5535    28   723  4783  1480  3303     0  0.00     0     0  2333     0 84.51 7.508  48.8     0     0  2965   244  0.69  0.83 137.4  34.9  5.16  0.00  0.00  0.00  0.00  0.00  0.00   0.0  0.00  0.00  0.00  0.00
 2000 300    87    72  12.8  -8.1 34.85  7.60  0.96  2.78 249.0  3.84 0.619  4.46  5764    28   748  4987  1585  3402     0  0.00     0     0  2348     0 86.62 7.971  47.1     0     0  2965   242  0.70  0.83 135.4  42.7  6.71  0.00  0.00  0.00  0.00  0.00  0.00   0.0  0.00  0.00  0.00  0.00
 2000 301    88    73  12.2  -7.7 35.48  7.73  0.97  2.78 340.7  4.07 0.667  4.74  6079    28   782  5268  1685  3583     0  0.00     0     0  2425     0 88.63 8.426  46.0     0     0  2965   241  0.71  0.83 132.1  30.4  5.06  0.00  0.00  0.00  0.00  0.00  0.00   0.0  0.00  0.00  0.00  0.00
 2000 302    89    74  13.9  -7.2 36.20  7.87  0.97  2.78 325.6  4.33 0.720  5.05  6380    28   815  5537  1800  3737     0  0.00     0     0  2471     0 90.95 8.971  44.6     0     0  2965   240  0.72  0.83 129.1  29.7  5.29  0.00  0.00  0.00  0.00  0.00  0.00   0.0  0.00  0.00  0.00  0.00
 2000 303    90    75  14.2  -6.6 36.93  8.01  0.98  2.78 353.4  4.58 0.778  5.36  6707    28   849  5830  1922  3909     0  0.00     0     0  2523     0 93.31 9.552  43.3     0     0  2908   238  0.73  0.84 125.7  26.3  5.02  0.00  0.00  0.00  0.00  0.00  0.00   0.0  0.00  0.00  0.00  0.00
 2000 304    91    76  14.6  -6.1 37.69  8.16  0.98  2.78 225.9  4.92 0.841  5.76  6916    28   870  6017  2084  3934     0  0.00     0     0  2442     0 95.76 10.17  40.6     0     0  2851   236  0.74  0.84 124.1  40.1  8.07  0.00  0.00  0.00  0.00  0.00  0.00   0.0  0.00  0.00  0.00  0.00
 2000 305    92    77  14.0  -6.0 38.41  8.31  0.99  2.78  83.4  5.24 0.893  6.13  6991    28   877  6085  2240  3845     0  0.00     0     0  2286     0 98.12 10.78  37.6     0     0  2798   234  0.75  0.84 126.0  99.9 15.00  0.00  0.00  0.00  0.00  0.00  0.00   0.0  0.00  0.00  0.00  0.00
 2000 306    93    78  13.7  -6.0 39.12  8.45  0.99  2.78 333.7  5.55 0.961  6.52  7301    28   908  6364  2393  3971     0  0.00     0     0  2276     0 100.4 11.38  35.8     0     0  2748   232  0.76  0.84 123.0  27.7  5.81  0.00  0.00  0.00  0.00  0.00  0.00   0.0  0.00  0.00  0.00  0.00
 2000 307    94    79  12.4  -6.0 39.76  8.57  0.99  2.78 207.9  5.84 1.018  6.86  7493    28   927  6538  2533  4005     0  0.00     0     0  2212     0 102.6 11.95  33.8     0     0  2703   230  0.77  0.85 127.1  47.1  9.88  0.00  0.00  0.00  0.00  0.00  0.00   0.0  0.00  0.00  0.00  0.00
 2000 308    95    80  13.0  -6.0 40.49  8.70  0.99  2.78 368.3  6.13 1.088  7.22  7837    28   959  6849  2679  4170     0  0.00     0     0  2226     0 104.8 12.55  32.5     0     0  2658   229  0.79  0.85 126.2  26.4  5.71  0.00  0.00  0.00  0.00  0.00  0.00   0.0  0.00  0.00  0.00  0.00
 2000 309    96    81   9.2  -6.0 41.02  8.70  0.99  2.78 192.0  6.09 1.112  7.20  8017    28   976  7013  2671  4332     0  0.00     0     0  2285    10 104.8 12.99  32.6     0     0  2627   228  0.79  0.85 129.4  56.7 12.35  0.00  0.00  0.00  0.00  0.00  0.00   0.0  0.00  0.07  0.00  0.00
 2000 310    97    82  11.6  -6.0 41.70  8.70  0.99  2.78 404.7  6.03 1.167  7.19  8398    28  1011  7359  2657  4680     0  0.00     0     0  2401    22 104.8 13.56  32.7     0     0  2589   227  0.80  0.86 125.6  24.5  5.60  0.00  0.00  0.00  0.00  0.00  0.00   0.0  0.00  0.00  0.00  0.00
 2000 311    98    83  10.7  -6.0 42.32  8.70  0.99  2.78 368.7  5.97 1.218  7.19  8745    28  1041  7675  2646  4996     0  0.00     0     0  2507    33 104.8 14.09  32.8     0     0  2555   226  0.81  0.86 122.2  26.7  6.35  0.00  0.00  0.00  0.00  0.00  0.00   0.0  0.00  0.00  0.00  0.00
 2000 312    99    84   9.9  -6.0 42.89  8.70  0.99  2.78 390.7  5.92 1.272  7.19  9113    28  1073  8012  2635  5333     0  0.00     0     0  2618    43 104.8 14.61  32.9     0     0  2524   225  0.82  0.86 118.4  24.7  6.08  0.00  0.00  0.00  0.00  0.00  0.00   0.0  0.00  0.01  0.00  0.00
 2000 313   100    85  10.7  -6.0 43.51  8.70  0.99  2.78 353.3  5.87 1.320  7.19  9447    28  1101  8317  2623  5640     0  0.00     0     0  2721    54 104.8 15.18  32.9     0     0  2492   224  0.83  0.86 115.5  26.5  6.75  0.00  0.00  0.00  0.00  0.00  0.00   0.0  0.00  0.00  0.00  0.00
 2000 314   101    86  10.1  -6.0 44.10  8.70  0.99  2.78 295.3  5.82 1.360  7.18  9726    28  1124  8573  2612  5897     0  0.00     0     0  2808    65 104.8 15.74  33.0     0     0  2462   223  0.84  0.87 120.8  33.1  8.18  0.00  0.00  0.00  0.00  0.00  0.00   0.0  0.00  0.00  0.00  0.00
 2000 315   102    87  11.6  -6.0 44.78  8.70  0.99  2.78  80.0  5.76 1.367  7.13  9801    28  1130  8643  2598  5968     0  0.00     0     0  2841    77 104.8 16.40  33.2     0     0  2429   222  0.85  0.87 136.5  99.9 15.00  0.00  0.00  0.00  0.00  0.00  0.00   0.0  0.00  0.00  0.00  0.00
 2000 316   103    88   7.7  -6.0 45.23  8.70  0.99  2.78 267.5  5.72 1.404  7.13 10055    28  1150  8877  2591  6201     0  0.00     0     0  2920    85 104.8 16.83  33.2     0     0  2407   221  0.85  0.87 146.7  48.5  9.99  0.00  0.00  0.00  0.00  0.00  0.00   0.0  0.00  0.23  0.00  0.00
 2000 317   104    89   7.6  -6.0 45.67  8.70  0.99  2.78 336.4  5.69 1.452  7.14 10374    28  1174  9172  2582  6496     0  0.00     0     0  3016    93 104.8 17.27  33.2     0     0  2386   220  0.86  0.88 146.9  38.0  7.80  0.00  0.00  0.00  0.00  0.00  0.00   0.0  0.00  0.24  0.00  0.00
 2000 318   105    90  10.3  -6.0 46.27  8.70  0.99  2.78 424.5  5.64 1.512  7.15 10777    28  1205  9544  2569  6871     0  0.00     0     0  3139   104 104.8 17.87  33.2     0     0  2359   219  0.87  0.88 142.8  27.6  5.87  0.00  0.00  0.00  0.00  0.00  0.00   0.0  0.00  0.00  0.00  0.00
 2000 319   106    91   8.4  -6.0 46.76  8.70  0.99  2.78 425.7  5.60 1.573  7.17 11182    28  1234  9920  2560  7247     0  0.00     0     0  3260   113 104.8 18.38  33.2     0     0  2337   219  0.87  0.88 138.6  27.5  5.89  0.00  0.00  0.00  0.00  0.00  0.00   0.0  0.00  0.16  0.00  0.00
 2000 320   107    92  11.1  -6.0 47.41  8.70  0.99  2.78 388.4  5.54 1.628  7.17 11552    28  1261 10263  2545  7593     0  0.00     0     0  3375   125 104.8 19.07  33.3     0     0  2308   218  0.88  0.88 134.9  27.4  6.01  0.00  0.00  0.00  0.00  0.00  0.00   0.0  0.00  0.00  0.00  0.00
 2000 321   108    93  14.6  -6.0 48.26  8.70  0.99  2.78 223.1  5.47 1.655  7.13 11764    28  1275 10461  2526  7794     0  0.00     0     0  3450   140 104.8 19.99  33.4     0     0  2272   217  0.89  0.89 133.4  43.4  9.56  0.00  0.00  0.00  0.00  0.00  0.00   0.0  0.00  0.00  0.00  0.00
 2000 322   109    94  16.4  -6.0 49.21  8.70  0.99  2.78 158.3  5.40 1.672  7.07 11914    28  1284 10602  2506  7874     0  0.00    64    64  3510   158 104.8 21.03  33.6     0     0  2233   215  0.91  0.89 132.6  59.1 13.02  0.00  0.00  0.00  0.00  0.00  0.00   0.0  0.00  0.00  0.00  0.00
 2000 323   110    95  12.9  -6.0 49.96  8.70  0.99  2.78 291.5  5.34 1.711  7.05 12193    28  1302 10863  2492  7965     0  0.00   234   183  3602   172 104.8 21.86  33.7     0     0  2203   214  0.92  0.90 129.6  34.6  7.76  0.00  0.00  0.00  0.00  0.00  0.00   0.0  0.00  0.00  0.00  0.00
 2000 324   111    96   8.1  -6.0 51.46  8.70  0.99  2.78 380.7  5.30 1.767  7.07 12558    28  1324 11206  2484  8060     0  0.00   481   339  3713   180 104.8 22.38  33.7     0     0  2185   213  0.93  0.90 125.4  28.2  6.52  0.00  0.00  0.00  0.00  0.00  0.00   0.0  0.00  0.19  0.00  0.00
 2000 325   112    97  11.1  -6.0 53.69  8.70  0.99  2.78 197.9  5.26 1.790  7.05 12748    28  1334 11385  2473  8041     0  0.00   681   421  3776   189 104.8 23.12  33.7     0     0  2160   213  0.93  0.91 124.3  50.4 11.70  0.00  0.00  0.00  0.00  0.00  0.00   0.0  0.00  0.00  0.00  0.00
 2000 326   113    98  12.2  -6.0 56.14  8.70  0.99  2.78 405.2  5.21 1.846  7.06 13138    28  1354 11756  2463  8189     0  0.00   905   589  3897   199 104.8 23.94  33.7     0     0  2133   212  0.94  0.92 119.5  23.1  5.57  0.00  0.00  0.00  0.00  0.00  0.00   0.0  0.00  0.00  0.00  0.00
 2000 327   114    99   7.8  -6.0 57.70  8.70  0.99  2.78 144.1  5.18 1.864  7.05 13278    28  1359 11890  2458  8137     0  0.00  1089   650  3944   205 104.8 24.47  33.7     0     0  2117   211  0.95  0.93 118.4  71.1 15.00  0.00  0.00  0.00  0.00  0.00  0.00   0.0  0.00  0.22  0.00  0.00
 2000 328   115   100  11.6  -6.0 60.05  8.70  0.99  2.78 422.7  5.14 1.925  7.07 13689    28  1375 12285  2447  8320     0  0.00  1304   830  4071   215 104.8 25.25  33.7     0     0  2093   210  0.96  0.93 113.4  21.3  5.37  0.00  0.00  0.00  0.00  0.00  0.00   0.0  0.00  0.00  0.00  0.00
 2000 329   116   101  11.6  -6.0 65.85  8.70  0.99  2.78 445.8  4.96 1.991  6.95 14124    28  1389 12706  2373  8447     0  0.00  1622  1022  4248   265 104.8 26.05  34.1     0     0  2070   209  0.97  0.95 108.4  19.0  4.99  0.00  0.00  0.00  0.00  0.00  0.00   0.0  0.00  0.00  0.00  0.00
 2000 330   117   102  12.4  -6.0 70.32  8.70  0.98  2.78  82.1  4.79 1.996  6.78 14204    28  1391 12785  2298  8366     0  0.00  1805  1058  4322   315 104.8 26.91  34.7     0     0  2045   208  0.98  0.96 111.5  99.9 15.00  0.00  0.00  0.00  0.00  0.00  0.00   0.0  0.00  0.00  0.00  0.00
 2000 331   118   103  13.9  -6.0 71.38  8.70  0.98  2.78 140.7  4.60 2.010  6.61 14342    28  1392 12921  2218  8426     9  0.00  1898  1129  4408   370 104.8 27.88  35.1 31174 .0000  2019   207  0.99  0.97 111.7  60.9 15.00  0.00  0.00  0.00  0.00  0.00  0.00   0.0  0.00  0.00  0.00  0.00
 2000 332   119   104  14.9  -6.0 72.53  8.70  0.98  2.78 285.9  4.39 2.049  6.44 14624    28  1395 13201  2128  8522    57  0.00  2065  1303  4505   430 104.8 28.91  35.4 31174 .0002  1991   206  1.00  0.98 108.3  28.1  7.32  0.00  0.00  0.00  0.00  0.00  0.00   0.0  0.00  0.00  0.00  0.00
 2000 333   120   105  11.8  -6.0 73.43  8.70  0.97  2.78 393.2  4.16 2.041  6.20 15013    28  1399 13586  2030  8699   111  0.01  2251  1358  4902   496 104.8 29.74  37.8 31174 .0004  1969   205  1.01  0.98 103.5  20.7  5.61  0.00  0.00  0.00  0.00  0.00  0.00   0.0  0.00  0.00  0.00  0.00
 2000 334   121   106  13.9  -6.0 74.51  8.70  0.97  2.78 435.7  3.99 2.032  6.02 15445    28  1403 14013  1951  8962   214  0.02  2339  1461  5278   548 104.8 30.71  39.8 31174 .0007  1945   204  1.03  0.98  97.9  16.7  4.75  0.00  0.00  0.00  0.00  0.00  0.00   0.0  0.00  0.00  0.00  0.00
 2000 335   122   107  14.4  -6.0 75.62  8.70  0.96  2.78 170.5  3.78 2.022  5.80 15613    28  1404 14180  1858  8993   358  0.03  2361  1605  5362   609 104.8 31.72  40.6 31174 .0011  1920   203  1.04  0.98  96.0  41.5 11.93  0.00  0.00  0.00  0.00  0.00  0.00   0.0  0.00  0.00  0.00  0.00
 2000 336   123   108  14.4  -6.0 76.73  8.70  0.95  2.78 416.0  3.56 2.013  5.57 16024    28  1408 14588  1761  9184   539  0.04  2431  1786  5653   673 104.8 32.74  42.3 31174 .0017  1896   202  1.05  0.98  90.6  16.4  4.99  0.00  0.00  0.00  0.00  0.00  0.00   0.0  0.00  0.00  0.00  0.00
 2000 337   124   109  11.2  -6.0 77.59  8.70  0.94  2.78 325.2  3.35 2.006  5.35 16346    28  1411 14907  1663  9344   670  0.04  2492  1917  5904   737 104.8 33.53  43.7 31174 .0021  1877   201  1.06  0.98  86.7  21.5  6.80  0.00  0.00  0.00  0.00  0.00  0.00   0.0  0.00  0.00  0.00  0.00
 2000 338   125   110  13.5  -6.0 78.63  8.70  0.93  2.78 390.0  3.18 1.997  5.18 16732    28  1415 15289  1587  9487   883  0.06  2545  2130  6123   787 104.8 34.48  45.0 31174 .0028  1856   200  1.07  0.98  81.7  16.0  3.80  0.00  0.00  0.00  0.00  0.00  0.00   0.0  0.00  0.00  0.00  0.00
 2000 339   126   111  14.6  -6.0 79.76  8.70  0.92  2.78 299.4  2.98 1.988  4.97 17028    28  1417 15582  1494  9508  1169  0.08  2564  2416  6191   847 104.8 35.52  45.6 31174 .0038  1834   199  1.08  0.98  77.8  19.7  3.12  0.00  0.00  0.00  0.00  0.00  0.00   0.0  0.00  0.00  0.00  0.00
 2000 340   127   112  16.8  -6.0 80.22  8.70  0.90  2.78 276.2  2.76 1.978  4.74 17301    28  1420 15853  1392  9421  1573  0.10  2554  2820  6123   912 104.8 36.71  45.8 31174 .0050  1808   198  1.10  0.98  74.1  19.3  2.92  0.00  0.00  0.00  0.00  0.00  0.00   0.0  0.00  0.00  0.00  0.00
 2000 341   128   113  14.4  -6.0 80.45  8.70  0.89  2.78 374.4  2.65 1.969  4.62 17671    28  1423 16220  1342  9459  1901  0.12  2572  3148  6196   946 104.8 37.73  46.3 31174 .0061  1788   197  1.11  0.98  69.2  14.2  1.01  0.00  0.00  0.22  0.00  0.00  0.00   0.0  0.00  0.00  0.00  0.00
 2000 342   129   114   9.8  -6.0 80.60  8.70  0.89  2.20 307.4  2.58 1.963  4.54 17976    28  1426 16521  1312  9577  2054  0.12  2611  3301  6364   967 104.8 38.43  47.1 31174 .0066  1774   197  1.12  0.98  65.4  14.2  0.79  0.42  0.21  0.39  0.00  0.00  0.00   0.0  0.00  0.02  0.00  0.00
 2000 343   130   115  11.1  -6.0 80.78  8.70  0.88  2.03 232.1  2.53 1.957  4.49 18205    28  1428 16749  1292  9604  2250  0.13  2622  3497  6410   981 104.8 39.23  47.4 31174 .0072  1758   196  1.13  0.98  62.8  16.2  0.73  0.54  0.27  0.44  0.00  0.00  0.00   0.0  0.00  0.00  0.00  0.00
 2000 344   131   116  13.9  -6.0 81.00  8.70  0.88  2.59 182.1  2.47 1.949  4.42 18385    28  1429 16927  1268  9509  2556  0.15  2597  3802  6299   997 104.8 40.22  47.1 31174 .0082  1740   195  1.14  0.98  60.9  23.9  0.93  0.13  0.07  0.28  0.00  0.00  0.00   0.0  0.00  0.00  0.00  0.00
 2000 345   132   117  15.1  -6.0 81.24  8.70  0.86  1.37 156.8  2.36 1.940  4.30 18539    28  1430 17081  1213  9359  2916  0.17  2561  4162  6128  1032 104.8 41.30  46.7 31174 .0094  1720   194  1.15  0.98  59.3  14.2  0.49  1.00  0.51  0.62  0.00  0.00  0.00   0.0  0.00  0.00  0.00  0.00
 2000 346   133   118  13.1  -6.0 81.45  8.70  0.86  2.63 144.2  2.28 1.933  4.22 18681    28  1431 17222  1181  9264  3184  0.18  2538  4431  6022  1054 104.8 42.23  46.4 31174 .0102  1703   193  1.16  0.98  57.9  30.3  0.94  0.11  0.06  0.27  0.00  0.00  0.00   0.0  0.00  0.00  0.00  0.00
 2000 347   134   119  13.5  -6.0 81.66  8.70  0.84  1.42 128.5  2.17 1.925  4.10 18808    28  1431 17348  1129  9149  3470  0.20  2512  4717  5896  1087 104.8 43.19  46.1 31174 .0111  1686   192  1.17  0.98  57.2  18.0  0.51  0.98  0.49  0.61  0.00  0.00  0.00   0.0  0.00  0.00  0.00  0.00
 2000 348   135   120  14.4  -6.0 81.89  8.70  0.83  1.98 122.3  2.11 1.918  4.03 18928    28  1432 17468  1100  8995  3795  0.22  2471  5042  5710  1107 104.8 44.22  45.4 31174 .0122  1668   192  1.19  0.98  61.7  28.1  0.71  0.58  0.29  0.45  0.00  0.00  0.00   0.0  0.00  0.00  0.00  0.00
 2000 349   136   121  13.4  -6.0 82.10  8.70  0.82  2.78 325.3  2.04 1.910  3.95 19250    28  1435 17787  1069  9029  4077  0.23  2485  5323  5768  1127 104.8 45.18  45.8 31174 .0131  1652   191  1.20  0.98  59.6  14.7  1.79  0.00  0.00  0.00  0.00  0.00  0.00   0.0  0.00  0.00  0.00  0.00
 2000 350   137   122   9.3  -6.0 82.25  8.70  0.81  2.78 343.1  1.98 1.905  3.88 19589    28  1438 18123  1039  9188  4213  0.23  2536  5460  5987  1147 104.8 45.84  46.9 31174 .0135  1641   190  1.21  0.98  55.2  13.9  1.80  0.00  0.00  0.00  0.00  0.00  0.00   0.0  0.00  0.07  0.00  0.00
 2000 351   138   123  16.0  -6.0 82.50  8.70  0.81  1.97  85.8  1.93 1.897  3.83 19673    28  1438 18207  1019  8942  4619  0.25  2467  5866  5679  1160 104.8 47.00  45.7 31174 .0148  1622   189  1.22  0.98  54.8  34.0  0.71  0.58  0.29  0.45  0.00  0.00  0.00   0.0  0.00  0.00  0.00  0.00
 2000 352   139   124  18.4  -6.0 82.79  8.70  0.79  1.74  80.5  1.85 1.887  3.74 19752    28  1438 18286   983  8649  5084  0.28  2387  6330  5316  1183 104.8 48.32  44.2 31174 .0163  1601   188  1.23  0.98  54.3  30.2  0.63  0.75  0.37  0.52  0.00  0.00  0.00   0.0  0.00  0.00  0.00  0.00
 2000 353   140   125  14.2  -6.0 83.02  8.70  0.77  0.55  74.0  1.73 1.880  3.61 19824    28  1438 18358   922  8468  5404  0.29  2343  6651  5107  1222 104.8 49.35  43.5 31174 .0173  1585   187  1.25  0.98  53.9  11.3  0.20  1.00  0.80  0.85  0.00  0.00  0.00   0.0  0.00  0.00  0.00  0.00
 2000 354   141   126  14.6  -6.0 83.25  8.70  0.75  0.54  68.7  1.62 1.873  3.50 19891    28  1437 18426   871  8268  5741  0.31  2292  6988  4870  1254 104.8 50.39  42.6 31174 .0184  1569   187  1.26  0.98  53.6  11.7  0.19  1.00  0.81  0.85  0.00  0.00  0.00   0.0  0.00  0.00  0.00  0.00
 2000 355   142   127  15.7  -6.0 83.50  8.70  0.73  0.68  62.6  1.52 1.865  3.39 19952    28  1437 18487   820  8024  6130  0.33  2228  7377  4574  1286 104.8 51.52  41.3 31174 .0197  1552   186  1.27  0.98  53.3  15.7  0.25  1.00  0.75  0.81  0.00  0.00  0.00   0.0  0.00  0.00  0.00  0.00
 2000 356   143   128  15.9  -6.0 83.75  8.70  0.70  0.68  60.3  1.42 1.857  3.27 20011    28  1437 18546   767  7772  6527  0.35  2162  7774  4269  1319 104.8 52.66  39.9 31174 .0209  1536   185  1.29  0.98  53.1  16.4  0.24  1.00  0.76  0.81  0.00  0.00  0.00   0.0  0.00  0.00  0.00  0.00
 2000 357   144   129  11.8  -6.0 83.94  8.70  0.67  0.54  62.2  1.31 1.852  3.17 20072    28  1436 18607   715  7658  6747  0.36  2136  7993  4143  1351 104.8 53.51  39.4 31174 .0216  1523   184  1.30  0.98  52.8  13.7  0.19  1.00  0.81  0.85  0.00  0.00  0.00   0.0  0.00  0.00  0.00  0.00
 2000 358   145   130   9.1  -6.0 84.08  8.70  0.66  1.72  62.5  1.26 1.847  3.11 20133    28  1437 18668   687  7609  6879  0.37  2125  8126  4089  1369 104.8 54.17  39.2 31174 .0221  1514   183  1.31  0.98  63.0  55.0  0.62  0.76  0.38  0.52  0.00  0.00  0.00   0.0  0.00  0.09  0.00  0.00
 2000 359   146   131  14.8  -6.0 84.32  8.70  0.64  2.78  95.0  1.22 1.840  3.06 20226    28  1437 18761   665  7417  7225  0.39  2072  8472  3850  1382 104.8 55.23  37.9 31174 .0232  1499   183  1.32  0.98  65.7  53.7  5.42  0.00  0.00  0.00  0.00  0.00  0.00   0.0  0.00  0.00  0.00  0.00
 2000 360   147   132  11.8  -6.0 84.51  8.70  0.62  2.78 215.7  1.15 1.835  2.98 20439    28  1438 18973   630  7417  7445  0.39  2077  8691  3863  1404 104.8 56.08  38.2 31174 .0239  1487   182  1.33  0.98  66.8  25.9  2.57  0.00  0.00  0.00  0.00  0.00  0.00   0.0  0.00  0.00  0.00  0.00
 2000 361   148   133  13.7  -6.0 84.72  8.70  0.60  2.78 261.2  1.09 1.829  2.92 20698    28  1441 19229   602  7391  7741  0.40  2074  8988  3840  1422 104.8 57.06  38.1 31174 .0248  1473   181  1.34  0.98  62.1  19.0  2.02  0.00  0.00  0.00  0.00  0.00  0.00   0.0  0.00  0.00  0.00  0.00
 2000 362   149   134  11.0  -6.0 84.90  8.70  0.58  2.78 178.0  1.03 1.824  2.85 20873    28  1442 19403   569  7384  7932  0.41  2077  9179  3844  1442 104.8 57.86  38.3 31174 .0254  1463   181  1.35  0.98  59.0  28.2  3.16  0.00  0.00  0.00  0.00  0.00  0.00   0.0  0.00  0.00  0.00  0.00
 2000 363   150   135  12.4  -6.0 85.10  8.70  0.56  2.78 170.7  0.98 1.818  2.79 21042    28  1443 19570   542  7330  8175  0.42  2065  9422  3785  1458 104.8 58.75  38.1 31174 .0262  1451   180  1.36  0.98  56.4  27.1  3.17  0.00  0.00  0.00  0.00  0.00  0.00   0.0  0.00  0.00  0.00  0.00
 2000 364   151   136  15.5  -6.0 85.34  8.70  0.53  1.30  95.7  0.90 1.811  2.71 21136    28  1443 19664   501  7119  8552  0.43  2009  9799  3526  1483 104.8 59.86  36.6 31174 .0274  1437   179  1.37  0.98  55.1  20.8  0.47  1.00  0.53  0.64  0.00  0.00  0.00   0.0  0.00  0.00  0.00  0.00
 2000 365   152   137  15.5  -6.0 85.59  8.70  0.50  0.62  51.2  0.81 1.805  2.61 21185    28  1443 19714   453  6874  8931  0.45  1944 10178  3226  1512 104.8 60.98  34.8 31174 .0286  1423   178  1.38  0.98  55.0  18.5  0.22  1.00  0.78  0.83  0.00  0.00  0.00   0.0  0.00  0.00  0.00  0.00
 2000 366   153   138  15.4  -6.0 85.83  8.70  0.46  0.65  43.9  0.72 1.798  2.52 21228    28  1442 19757   405  6627  9306  0.47  1879 10552  2923  1541 104.8 62.09  32.8 31174 .0299  1409   178  1.40  0.98  55.2  22.5  0.23  1.00  0.77  0.82  0.00  0.00  0.00   0.0  0.00  0.00  0.00  0.00
 2001   1   153   138  16.2  -6.0 86.09  8.70  0.42  0.58  41.2  0.63 1.791  2.43 21268    28  1441 19798   359  6351  9715  0.49  1805 10962  2582  1569 104.8 63.26  30.3 31174 .0312  1394   177  1.41  0.98  55.5  21.2  0.21  1.00  0.79  0.84  0.00  0.00  0.00   0.0  0.00  0.00  0.00  0.00
 2001   2   154   139  16.0  -6.0 86.34  8.70  0.37  0.84  40.2  0.55 1.785  2.33 21306    28  1441 19837   311  6077 10120  0.51  1732 11367  2245  1597 104.8 64.42  27.6 31174 .0325  1380   176  1.42  0.98  55.8  31.7  0.30  1.00  0.70  0.77  0.00  0.00  0.00   0.0  0.00  0.00  0.00  0.00
 2001   3   155   140  15.0  -6.0 86.58  8.70  0.33  0.99  39.5  0.46 1.779  2.24 21344    28  1440 19876   264  5843 10473  0.53  1670 11720  1958  1625 104.8 65.49  25.2 31174 .0336  1368   175  1.43  0.98  64.1  44.5  0.36  1.00  0.64  0.73  0.00  0.00  0.00   0.0  0.00  0.00  0.00  0.00
 2001   4   156   141  18.1  -6.0 86.87  8.70  0.28  2.78  67.3  0.39 1.771  2.16 21410    28  1440 19942   226  5547 10932  0.55  1589 12179  1588  1647 104.8 66.80  21.6 31174 .0351  1352   174  1.45  0.98  62.5  67.6  6.95  0.00  0.00  0.00  0.00  0.00  0.00   0.0  0.00  0.00  0.00  0.00
 2001   5   157   142  18.2  -6.0 87.16  8.70  0.23  2.78  64.4  0.31 1.764  2.07 21472    28  1439 20005   179  5250 11392  0.57  1509 12639  1219  1675 104.8 68.11  17.6 31174 .0365  1337   173  1.46  0.98  63.2  72.3  7.35  0.00  0.00  0.00  0.00  0.00  0.00   0.0  0.00  0.00  0.00  0.00
 2001   6   158   143  13.4  -6.0 87.37  8.70  0.18  2.78  43.5  0.23 1.759  1.99 21515    28  1439 20048   132  5074 11675  0.58  1464 12922  1006  1703 104.8 69.08  15.1 31174 .0375  1326   172  1.48  0.98  74.3  99.9 11.86  0.00  0.00  0.00  0.00  0.00  0.00   0.0  0.00  0.00  0.00  0.00
 2001   7   159   144  13.5  -6.0 87.59  8.70  0.13  2.78  47.4  0.17 1.754  1.92 21561    28  1438 20094    97  4893 11965  0.60  1416 13212   782  1723 104.8 70.05  12.2 31174 .0384  1315   172  1.49  0.98  76.9  99.9 10.73  0.00  0.00  0.00  0.00  0.00  0.00   0.0  0.00  0.00  0.00  0.00
 2001   8   160   145  12.1  -6.0 87.78  8.70  0.09  2.78  32.6  0.10 1.749  1.85 21592    28  1438 20126    61  4748 12194  0.61  1379 13441   606  1744 104.8 70.92   9.8 31174 .0391  1306   171  1.50  0.98  99.6  99.9 15.00  0.00  0.00  0.00  0.00  0.00  0.00   0.0  0.00  0.00  0.00  0.00
 2001   9   161   146  12.9  -6.0 87.98  8.70  0.04  2.78  20.9  0.05 1.745  1.79 21612    28  1437 20146    28  4569 12455  0.62  1331 13702   384  1762 104.8 71.84   6.5 31174 .0400  1296   170  1.51  0.98 101.4  99.9 15.00  0.00  0.00  0.00  0.00  0.00  0.00   0.0  0.00  0.00  0.00  0.00
 2001  10   162   147  11.0  -6.0 88.16  8.70  0.00  2.78  15.4  0.00 1.740  1.74 21626    28  1436 20162     0  4439 12646  0.63  1298 13893   225  1779 104.8 72.63   3.9 31174 .0406  1287   -99  1.52  0.98 100.1  99.9 15.00  0.00  0.00  0.00  0.00  0.00  0.00   0.0  0.00  0.00  0.00  0.00

*DSSAT Cropping System Model Ver. 4.7.5.007 -release  JUN 22, 2021 11:17:24

*RUN   2        : [1] INOS (INOS0101.WTH)   CSCER047 UAVA1901    2
 MODEL          : CSCER047 - Wheat
 EXPERIMENT     : UAVA1901 WH TRIGO PANDORA ROTACION
 DATA PATH      : C:\DSSAT47\SensWork\
 TREATMENT  2   : [1] INOS (INOS0101.WTH)   CSCER047
  
@YEAR DOY   DAS   DAP TMEAN TKILL  GSTD  L#SD PARID PARUD  AWAD  LAID  SAID  CAID  TWAD SDWAD  RWAD  CWAD  LWAD  SWAD  HWAD  HIAD CHWAD  EWAD RSWAD SNWPD SNWLD SNWSD  RS%D  H#AD  HWUD  T#AD  SLAD  RDPD  PTFD  SWXD WAVRD WUPRD  WFTD  WFPD  WFGD  NFTD  NFPD  NFGD NUPRD  TFPD  TFGD VRNFD DYLFD
 2001 228    15     0   4.6  -6.0  0.00  0.00  0.00  0.00   0.0  0.00 0.000  0.00   142   142     0     0     0     0     0  0.00     0     0     0     0     0     0   0.0     0     0   500   -99  0.02  0.98   7.2  99.9  1.00  0.00  0.00  0.00  0.00  0.00  0.00   0.0  0.00  0.54  0.50  0.00
 2001 229    16     1   5.7  -6.0  2.35  0.00  0.00  0.00   0.0  0.00 0.000  0.00   142   142     0     0     0     0     0  0.00     0     0     0     0     0     0   0.0     0     0   500   -99  0.02  0.98   7.8  99.9  1.00  0.00  0.00  0.00  0.00  0.00  0.00   0.0  0.00  0.43  0.50  0.00
 2001 230    17     2   8.5  -6.0  5.67  0.00  0.00  0.00   0.0  0.00 0.000  0.00   142   142     0     0     0     0     0  0.00     0     0     0     0     0     0   0.0     0     0   500   -99  0.02  0.98   7.6  99.9  1.00  0.00  0.00  0.00  0.00  0.00  0.00   0.0  0.00  0.15  0.50  0.00
 2001 231    18     3   6.7  -6.2  7.45  0.00  0.00  0.00   0.0  0.00 0.000  0.00   142   141     1     0     0     0     0  0.00     0     0     0     0     0     0   0.0     0     0   500   -99  0.03  0.98  11.0  99.9  1.00  0.00  0.00  0.00  0.00  0.00  0.00   0.0  0.00  0.33  0.40  0.00
 2001 232    19     4   9.2  -6.0 10.00  0.00  0.00  0.00   0.0  0.00 0.000  0.00   142   141     1     0     0     0     0  0.00     0     0     0     0     0 .0002   0.0     0     0   500   -99  0.04  0.98  15.7  99.9  1.00  0.00  0.00  0.00  0.00  0.00  0.00   0.0  0.00  0.08  0.33  0.00
 2001 233    20     5  11.1  -6.0 10.23  0.23  0.03  0.00   0.0  0.03 0.004  0.04   142   123     2    17    11     6     0  0.00     0     0     0     0     0 .0009   0.0     0     0   500   300  0.06  0.75  21.7  99.9  1.00  0.00  0.00  0.00  0.00  0.00  0.00   0.0  0.00  0.00  0.28  0.38
 2001 234    21     6  14.9  -6.0 10.53  0.53  0.07  2.78   1.3  0.08 0.009  0.09   143    99     3    41    27    14     0  0.00     0     0     1     0     0 .0024   2.4     0     0   500   298  0.08  0.75  29.7  99.9  3.50  0.00  0.00  0.00  0.00  0.00  0.00   0.0  0.00  0.00  0.28  0.38
 2001 235    22     7  13.8  -6.0 10.81  0.81  0.10  2.78   1.0  0.12 0.014  0.14   144    77     4    63    41    22     0  0.00     0     0     2     0     0 .0047   2.8     0     0   500   298  0.10  0.75  37.4  99.9  7.36  0.00  0.00  0.00  0.00  0.00  0.00   0.0  0.00  0.00  0.26  0.38
 2001 236    23     8  12.2  -6.0 11.06  1.06  0.12  2.78   1.6  0.15 0.018  0.17   146    61     5    79    52    27     0  0.00     0     0     2     0     0 .0073   2.1     0     0   500   298  0.12  0.76  46.4  99.9  6.22  0.00  0.00  0.00  0.00  0.00  0.00   0.0  0.00  0.00  0.23  0.37
 2001 237    24     9  11.9  -6.0 11.31  1.31  0.15  2.78  12.1  0.18 0.021  0.21   156    52     7    98    62    36     0  0.00     0     0     5     0     0 .0103   5.1     0     0   500   296  0.14  0.76  53.9  99.9  1.03  0.00  0.00  0.21  0.00  0.00  0.00   0.0  0.00  0.00  0.19  0.37
 2001 238    25    10   8.5  -6.1 11.48  1.48  0.16  2.78  14.1  0.21 0.024  0.23   169    47     9   114    70    43     0  0.00     0     0     9     0     0 .0133   7.5     0     0   500   295  0.15  0.76  56.8  99.9  1.29  0.00  0.00  0.01  0.00  0.00  0.00   0.0  0.00  0.15  0.11  0.36
 2001 239    26    11   6.5  -6.4 11.61  1.61  0.17  2.78  20.7  0.22 0.026  0.25   188    44    12   132    75    58     0  0.00     0     0    21     0     0 .0163  15.6     0     0   500   295  0.16  0.76  62.5  99.9  1.20  0.00  0.00  0.08  0.00  0.00  0.00   0.0  0.00  0.35  0.01  0.36
 2001 240    27    12   8.8  -6.5 11.79  1.79  0.19  2.78  12.4  0.25 0.029  0.27   199    40    14   145    83    62     0  0.00     0     0    21     0     0 .0215  14.2     0     0   500   294  0.18  0.76  67.7  99.9  2.54  0.00  0.00  0.00  0.00  0.00  0.00   0.0  0.00  0.12  0.00  0.36
 2001 241    28    13   8.2  -6.6 11.96  1.96  0.20  2.78  35.1  0.26 0.031  0.29   231    38    19   174    89    85     0  0.00     0     0    40     0     0 .0272  23.3     0     0   500   294  0.19  0.76  68.2  99.9  1.04  0.00  0.00  0.20  0.00  0.00  0.00   0.0  0.00  0.18  0.00  0.35
 2001 242    29    14   4.8  -7.0 12.03  2.03  0.20  2.64  28.0  0.27 0.032  0.30   256    37    23   196    91   105     0  0.00     0     0    60     0     0 .0317  30.6     0     0   500   293  0.19  0.76  70.1  99.9  1.83  0.00  0.00  0.00  0.00  0.00  0.00   0.0  0.05  0.52  0.00  0.35
 2001 243    30    15   5.4  -7.4 12.08  2.08  0.21  2.78  37.1  0.27 0.032  0.31   290    36    28   226    93   133     0  0.00     0     0    87     0     0 .0380  38.5     0     0   500   293  0.20  0.76  71.9  99.9  1.73  0.00  0.00  0.00  0.00  0.00  0.00   0.0  0.00  0.46  0.00  0.35
 2001 244    31    16   5.8  -7.7 12.14  2.14  0.21  2.78  38.3  0.28 0.033  0.31   324    35    34   256    95   161     0  0.00     0     0   114     0     0 .0461  44.5     0     0   500   293  0.21  0.76  72.5  99.9  2.07  0.00  0.00  0.00  0.00  0.00  0.00   0.0  0.00  0.43  0.00  0.34
 2001 245    32    17   5.4  -8.1 12.20  2.20  0.21  2.78  38.4  0.28 0.033  0.32   359    34    39   286    97   189     0  0.00     0     0   141     0     0 .0551  49.5     0     0   500   292  0.21  0.76  73.0  99.9  2.48  0.00  0.00  0.00  0.00  0.00  0.00   0.0  0.00  0.46  0.00  0.34
 2001 246    33    18   6.1  -8.4 12.26  2.26  0.22  2.78  47.0  0.29 0.034  0.32   402    33    46   323    99   223     0  0.00     0     0   175     0     0 .0671  54.2     0     0   500   292  0.22  0.76  71.6  99.9  2.30  0.00  0.00  0.00  0.00  0.00  0.00   0.0  0.00  0.39  0.00  0.33
 2001 247    34    19   9.7  -8.4 12.36  2.36  0.23  2.78  45.2  0.31 0.036  0.34   442    32    52   358   105   253     0  0.00     0     0   202     0     0 .0894  56.3     0     0   500   291  0.23  0.76  70.9  99.9  2.53  0.00  0.00  0.00  0.00  0.00  0.00   0.0  0.00  0.03  0.00  0.33
 2001 248    35    20  10.1  -8.3 12.46  2.46  0.24  2.78  50.3  0.32 0.038  0.36   488    31    60   397   111   286     0  0.00     0     0   232     0     0 0.116  58.3     0     0   500   290  0.24  0.76  70.6  99.9  2.58  0.00  0.00  0.00  0.00  0.00  0.00   0.0  0.00  0.00  0.00  0.33
 2001 249    36    21   8.3  -8.5 12.55  2.55  0.25  2.78  29.4  0.33 0.040  0.37   514    30    64   420   115   305     0  0.00     0     0   248     0     0 0.141  59.1     0     0   500   290  0.25  0.76  79.8  99.9  5.42  0.00  0.00  0.00  0.00  0.00  0.00   0.0  0.00  0.17  0.00  0.32
 2001 250    37    22   7.2  -8.7 12.62  2.62  0.25  2.78  19.6  0.34 0.041  0.38   532    30    66   436   119   317     0  0.00     0     0   259     0     0 0.164  59.4     0     0   500   289  0.26  0.76  90.2  99.9  8.81  0.00  0.00  0.00  0.00  0.00  0.00   0.0  0.00  0.27  0.00  0.32
 2001 251    38    23   8.6  -8.8 12.71  2.71  0.26  2.78  52.8  0.36 0.042  0.40   580    30    74   476   123   353     0  0.00     0     0   293     0     0 0.192  61.5     0     0   500   289  0.27  0.77  90.4  99.9  3.31  0.00  0.00  0.00  0.00  0.00  0.00   0.0  0.00  0.14  0.00  0.32
 2001 252    39    24   7.8  -8.9 12.79  2.79  0.27  2.78  54.8  0.37 0.044  0.41   630    29    81   519   127   392     0  0.00     0     0   330     0     0 0.221  63.6     0     0   500   288  0.28  0.77  89.2  99.9  3.58  0.00  0.00  0.00  0.00  0.00  0.00   0.0  0.00  0.23  0.00  0.31
 2001 253    40    25   8.6  -9.0 12.88  2.88  0.27  2.78  34.9  0.38 0.045  0.42   661    29    86   546   132   414     0  0.00     0     0   350     0     0 0.256  64.1     0     0   500   288  0.29  0.77  89.6  99.9  6.04  0.00  0.00  0.00  0.00  0.00  0.00   0.0  0.00  0.14  0.00  0.31
 2001 254    41    26  12.2  -9.0 13.00  3.00  0.29  2.78  63.9  0.40 0.048  0.45   719    29    95   595   139   456     0  0.00     0     0   388     0     0 0.309  65.2     0     0   500   287  0.30  0.77  91.5  99.9  3.22  0.00  0.00  0.00  0.00  0.00  0.00   0.0  0.00  0.00  0.00  0.30
 2001 255    42    27  12.0  -9.0 13.12  3.12  0.30  2.78  44.0  0.42 0.051  0.47   759    29   101   629   147   482     0  0.00     0     0   410     0     0 0.366  65.2     0     0   500   286  0.31  0.77  93.1  99.9  5.23  0.00  0.00  0.00  0.00  0.00  0.00   0.0  0.00  0.00  0.00  0.30
 2001 256    43    28  10.9  -9.0 13.23  3.23  0.31  2.78  52.2  0.44 0.053  0.49   806    29   108   669   154   515     0  0.00     0     0   440     0     0 0.421  65.7     0     0   555   285  0.32  0.77  92.5  99.9  4.79  0.00  0.00  0.00  0.00  0.00  0.00   0.0  0.00  0.00  0.00  0.30
 2001 257    44    29   7.8  -9.1 13.31  3.31  0.32  2.78  45.9  0.45 0.055  0.51   848    29   115   705   159   546     0  0.00     0     0   468     0     0 0.463  66.5     0     0   595   284  0.33  0.77  92.0  99.9  6.30  0.00  0.00  0.00  0.00  0.00  0.00   0.0  0.00  0.23  0.00  0.29
 2001 258    45    30  10.2  -9.1 13.42  3.42  0.33  2.78  82.8  0.47 0.057  0.53   923    29   126   769   166   602     0  0.00     0     0   521     0     0 0.522  67.7     0     0   647   284  0.34  0.77  90.2  91.8  3.43  0.00  0.00  0.00  0.00  0.00  0.00   0.0  0.00  0.00  0.00  0.29
 2001 259    46    31  10.5  -9.1 13.52  3.52  0.34  2.78  85.0  0.49 0.060  0.56  1000    29   137   834   175   659     0  0.00     0     0   573     0     0 0.588  68.7     0     0   701   283  0.35  0.77  88.6  86.4  3.61  0.00  0.00  0.00  0.00  0.00  0.00   0.0  0.00  0.00  0.00  0.29
 2001 260    47    32   8.7  -9.2 13.61  3.61  0.35  2.78  62.6  0.51 0.063  0.58  1057    29   146   883   182   701     0  0.00     0     0   612     0     0 0.647  69.3     0     0   745   282  0.36  0.77  87.8  99.9  5.82  0.00  0.00  0.00  0.00  0.00  0.00   0.0  0.00  0.13  0.00  0.28
 2001 261    48    33  10.0  -9.1 13.71  3.71  0.37  2.78  48.1  0.54 0.066  0.60  1101    28   152   920   191   729     0  0.00     0     0   635     0     0 0.720  69.0     0     0   796   281  0.37  0.77  87.7  99.9  7.74  0.00  0.00  0.00  0.00  0.00  0.00   0.0  0.00  0.00  0.00  0.28
 2001 262    49    34   7.2  -9.4 13.79  3.79  0.37  2.78  17.3  0.55 0.068  0.62  1117    28   155   934   196   737     0  0.00     0     0   640     0     0 0.775  68.6     0     0   833   281  0.38  0.78  91.3  99.9 15.00  0.00  0.00  0.00  0.00  0.00  0.00   0.0  0.00  0.28  0.00  0.28
 2001 263    50    35   8.2  -9.5 13.87  3.87  0.38  2.78  94.6  0.57 0.070  0.64  1203    28   167  1007   203   804     0  0.00     0     0   703     0     0 0.839  69.9     0     0   875   280  0.39  0.78  89.5  84.4  4.29  0.00  0.00  0.00  0.00  0.00  0.00   0.0  0.00  0.18  0.00  0.27
 2001 264    51    36  10.2  -9.5 13.98  3.98  0.40  2.78  18.1  0.60 0.074  0.67  1219    28   170  1021   214   807     0  0.00     0     0   701     0     0 0.924  68.7     0     0   927   279  0.40  0.78  93.6  99.9 15.00  0.00  0.00  0.00  0.00  0.00  0.00   0.0  0.00  0.00  0.00  0.27
 2001 265    52    37  11.4  -9.4 14.09  4.09  0.42  2.78  82.0  0.63 0.079  0.71  1294    28   180  1085   227   857     0  0.00     0     0   745     0     0 1.020  68.7     0     0   985   278  0.41  0.78  98.3  99.9  5.12  0.00  0.00  0.00  0.00  0.00  0.00   0.0  0.00  0.00  0.00  0.26
 2001 266    53    38  12.5  -9.4 21.10  4.22  0.43  2.78  50.4  0.66 0.082  0.74  1335    28   187  1119   237   883     0  0.00     0     0   764     0 4.806 1.133  68.3     0     0  1049   277  0.42  0.78 100.6  99.9  8.57  0.00  0.00  0.00  0.00  0.00  0.00   0.0  0.00  0.00  0.00  0.26
 2001 267    54    39  12.5  -9.4 21.23  4.35  0.45  2.78  71.9  0.70 0.088  0.79  1395    28   196  1171   253   917     0  0.00     0     0   789     0 9.609 1.250  67.4     0     0  1113   275  0.43  0.78  99.9  99.9  6.24  0.00  0.00  0.00  0.00  0.00  0.00   0.0  0.00  0.00  0.00  0.26
 2001 268    55    40  12.1  -9.4 21.35  4.47  0.47  2.78  94.6  0.74 0.094  0.83  1477    28   209  1240   269   971     0  0.00     0     0   833     0 14.28 1.369  67.2     0     0  1174   274  0.44  0.78  98.8  85.2  4.97  0.00  0.00  0.00  0.00  0.00  0.00   0.0  0.00  0.00  0.00  0.25
 2001 269    56    41  12.6  -9.3 21.48  4.60  0.48  2.78  44.1  0.78 0.100  0.88  1512    28   214  1270   286   983     0  0.00     0     0   837     0 19.15 1.500  65.9     0     0  1239   273  0.45  0.78 100.4  99.9 11.38  0.00  0.00  0.00  0.00  0.00  0.00   0.0  0.00  0.00  0.00  0.25
 2001 270    57    42  11.4  -9.3 21.59  4.72  0.50  2.78 102.5  0.82 0.106  0.92  1601    28   227  1346   301  1044     0  0.00     0     0   889     0 23.56 1.622  66.0     0     0  1296   272  0.46  0.78  99.3  82.1  5.20  0.00  0.00  0.00  0.00  0.00  0.00   0.0  0.00  0.00  0.00  0.25
 2001 271    58    43  12.6  -9.3 21.72  4.84  0.52  2.78 124.8  0.86 0.112  0.97  1710    28   243  1439   318  1121     0  0.00     0     0   955     0 28.46 1.765  66.4     0     0  1361   270  0.47  0.79  97.5  63.1  4.33  0.00  0.00  0.00  0.00  0.00  0.00   0.0  0.00  0.00  0.00  0.24
 2001 272    59    44  14.2  -9.2 21.87  4.99  0.54  2.78 150.8  0.91 0.120  1.03  1843    28   262  1552   337  1215     0  0.00     0     0  1037     0 34.00 1.938  66.8     0     0  1433   269  0.48  0.79  95.4  49.1  3.68  0.00  0.00  0.00  0.00  0.00  0.00   0.0  0.00  0.00  0.00  0.24
 2001 273    60    45  15.2  -9.2 22.02  5.14  0.57  2.78  71.1  0.99 0.131  1.12  1904    28   271  1604   368  1236     0  0.00     0     0  1042     0 37.95 2.137  64.9     0     0  1511   268  0.50  0.79  95.5  99.9  8.35  0.00  0.00  0.00  0.00  0.00  0.00   0.0  0.00  0.00  0.00  0.24
 2001 274    61    46  12.1  -9.2 22.14  5.27  0.60  2.78 158.0  1.07 0.143  1.22  2044    28   291  1725   403  1322     0  0.00     0     0  1108     0 41.86 2.301  64.2     0     0  1572   266  0.51  0.79  93.3  49.1  4.19  0.00  0.00  0.00  0.00  0.00  0.00   0.0  0.00  0.00  0.00  0.23
 2001 275    62    47  11.4  -9.1 22.26  5.38  0.62  2.78 129.7  1.15 0.155  1.31  2159    28   307  1824   435  1389     0  0.00     0     0  1155     0 45.54 2.466  63.3     0     0  1630   265  0.52  0.79  91.7  59.9  5.58  0.00  0.00  0.00  0.00  0.00  0.00   0.0  0.00  0.00  0.00  0.23
 2001 276    63    48  12.6  -9.1 22.39  5.51  0.65  2.78  75.5  1.24 0.168  1.41  2224    28   316  1880   470  1409     0  0.00     0     0  1157     0 49.64 2.659  61.5     0     0  1695   264  0.53  0.79  91.6  99.6  9.82  0.00  0.00  0.00  0.00  0.00  0.00   0.0  0.00  0.00  0.00  0.23
 2001 277    64    49  13.7  -9.1 22.53  5.65  0.68  2.78 131.3  1.34 0.183  1.52  2340    28   332  1979   509  1470     0  0.00     0     0  1194     0 54.11 2.876  60.3     0     0  1765   262  0.54  0.79  90.4  54.9  4.95  0.00  0.00  0.00  0.00  0.00  0.00   0.0  0.00  0.00  0.00  0.22
 2001 278    65    50  12.0  -9.0 22.65  5.77  0.70  2.78  92.5  1.42 0.195  1.61  2421    28   343  2049   544  1505     0  0.00     0     0  1210     0 58.04 3.075  59.0     0     0  1826   261  0.55  0.80  90.4  81.8  7.30  0.00  0.00  0.00  0.00  0.00  0.00   0.0  0.00  0.00  0.00  0.22
 2001 279    66    51  12.1  -9.0 22.78  5.90  0.72  2.78  54.6  1.50 0.207  1.71  2467    28   350  2089   578  1510     0  0.00     0     0  1198     0 62.03 3.284  57.3     0     0  1888   260  0.56  0.80  97.8  99.9 12.76  0.00  0.00  0.00  0.00  0.00  0.00   0.0  0.00  0.00  0.00  0.22
 2001 280    67    52   8.9  -9.1 22.87  5.99  0.73  2.78 119.4  1.56 0.216  1.77  2573    28   364  2181   601  1580     0  0.00     0     0  1254     0 64.95 3.439  57.5     0     0  1933   259  0.57  0.80  99.6  74.7  7.71  0.00  0.00  0.00  0.00  0.00  0.00   0.0  0.00  0.11  0.00  0.21
 2001 281    68    53  12.3  -9.1 22.99  6.11  0.76  2.78 126.6  1.67 0.233  1.91  2686    28   379  2278   647  1631     0  0.00     0     0  1277     0 69.00 3.663  56.1     0     0  1996   258  0.58  0.80  98.7  64.2  6.96  0.00  0.00  0.00  0.00  0.00  0.00   0.0  0.00  0.00  0.00  0.21
 2001 282    69    54  12.5  -8.8 23.18  6.24  0.78  2.78 151.9  1.80 0.253  2.05  2823    28   397  2397   700  1698     0  0.00     0     0  1313     0 71.19 3.900  54.7     0     0  2092   257  0.59  0.80 102.9  55.7  6.03  0.00  0.00  0.00  0.00  0.00  0.00   0.0  0.00  0.00  0.00  0.00
 2001 283    70    55   8.4  -8.7 23.31  6.33  0.80  2.78 249.4  1.88 0.266  2.15  3051    28   426  2596   735  1861     0  0.00     0     0  1454     0 72.65 4.066  56.0     0     0  2155   256  0.60  0.80 100.0  35.7  4.17  0.00  0.00  0.00  0.00  0.00  0.00   0.0  0.00  0.16  0.00  0.00
 2001 284    71    56  10.6  -8.5 23.47  6.44  0.82  2.78 208.6  2.01 0.287  2.30  3241    28   451  2762   789  1973     0  0.00     0     0  1530     0 74.52 4.293  55.4     0     0  2237   255  0.61  0.80  97.9  40.0  5.12  0.00  0.00  0.00  0.00  0.00  0.00   0.0  0.00  0.00  0.00  0.00
 2001 285    72    57   9.2  -8.2 23.62  6.53  0.83  2.78 277.8  2.11 0.304  2.42  3496    28   483  2985   833  2152     0  0.00     0     0  1679     0 76.15 4.501  56.3     0     0  2308   254  0.61  0.81  94.7  29.5  4.12  0.00  0.00  0.00  0.00  0.00  0.00   0.0  0.00  0.07  0.00  0.00
 2001 286    73    58  11.1  -8.0 23.79  6.64  0.85  2.78 277.2  2.25 0.327  2.57  3749    28   514  3207   889  2318     0  0.00     0     0  1804     0 78.12 4.770  56.3     0     0  2393   253  0.62  0.81  91.7  27.7  4.29  0.00  0.00  0.00  0.00  0.00  0.00   0.0  0.00  0.00  0.00  0.00
 2001 287    74    59  12.5  -7.6 30.12  6.77  0.87  2.78 296.2  2.40 0.354  2.75  4021    28   548  3445   953  2491     0  0.00     0     0  1930     0 80.34 5.093  56.0     0     0  2489   252  0.63  0.81  88.4  24.0  4.11  0.00  0.00  0.00  0.00  0.00  0.00   0.0  0.00  0.00  0.00  0.00
 2001 288    75    60  14.5  -7.0 30.87  6.92  0.89  2.78 298.8  2.57 0.385  2.96  4294    28   581  3685  1028  2657     0  0.00     0     0  2038     0 82.92 5.490  55.3     0     0  2600   250  0.64  0.81  85.2  21.4  4.05  0.00  0.00  0.00  0.00  0.00  0.00   0.0  0.00  0.00  0.00  0.00
 2001 289    76    61  15.1  -6.5 31.65  7.07  0.91  2.78 172.8  2.82 0.423  3.24  4451    28   599  3823  1131  2692     0  0.00     0     0  2012     0 85.60 5.928  52.6     0     0  2716   249  0.66  0.82  84.1  36.7  7.45  0.00  0.00  0.00  0.00  0.00  0.00   0.0  0.00  0.00  0.00  0.00
 2001 290    77    62  10.8  -6.4 32.20  7.18  0.92  2.78 168.1  3.02 0.457  3.47  4605    28   617  3959  1219  2740     0  0.00     0     0  2005     0 87.52 6.251  50.6     0     0  2798   247  0.67  0.82  83.1  42.0  8.89  0.00  0.00  0.00  0.00  0.00  0.00   0.0  0.00  0.00  0.00  0.00
 2001 291    78    63  11.2  -6.2 32.78  7.30  0.94  2.78 260.6  3.22 0.496  3.72  4844    28   645  4171  1309  2861     0  0.00     0     0  2051     0 89.53 6.598  49.2     0     0  2884   246  0.67  0.82  80.8  25.6  5.76  0.00  0.00  0.00  0.00  0.00  0.00   0.0  0.00  0.00  0.00  0.00
 2001 292    79    64   7.4  -6.3 33.17  7.37  0.94  2.78 222.5  3.32 0.516  3.84  5049    28   668  4352  1355  2998     0  0.00     0     0  2147     0 90.86 6.836  49.3     0     0  2941   245  0.68  0.82  89.0  36.7  7.53  0.00  0.00  0.00  0.00  0.00  0.00   0.0  0.00  0.26  0.00  0.00
 2001 293    80    65   6.8  -6.4 33.52  7.44  0.94  2.78 334.9  3.41 0.534  3.94  5359    28   703  4627  1393  3234     0  0.00     0     0  2348     0 92.09 7.065  50.7     0     0  2993   245  0.69  0.82  86.0  23.4  5.34  0.00  0.00  0.00  0.00  0.00  0.00   0.0  0.00  0.31  0.00  0.00
 2001 294    81    66   9.1  -6.3 33.99  7.54  0.95  2.78 277.3  3.56 0.566  4.13  5615    28   732  4855  1461  3394     0  0.00     0     0  2439     0 93.74 7.387  50.2     0     0  2993   244  0.69  0.83  83.5  25.9  6.41  0.00  0.00  0.00  0.00  0.00  0.00   0.0  0.00  0.09  0.00  0.00
 2001 295    82    67   8.2  -6.2 34.42  7.62  0.96  2.78 272.6  3.69 0.593  4.28  5867    28   760  5079  1516  3562     0  0.00     0     0  2550     0 95.23 7.689  50.2     0     0  2993   243  0.70  0.83  81.0  25.8  5.95  0.00  0.00  0.00  0.00  0.00  0.00   0.0  0.00  0.18  0.00  0.00
 2001 296    83    68  15.9  -6.0 35.24  7.78  0.97  2.78 207.5  3.98 0.643  4.63  6057    28   781  5248  1645  3603     0  0.00     0     0  2506     0 98.10 8.294  47.8     0     0  2993   242  0.71  0.83  79.7  28.0  5.94  0.00  0.00  0.00  0.00  0.00  0.00   0.0  0.00  0.00  0.00  0.00
 2001 297    84    69  14.3  -6.0 35.98  7.93  0.97  2.78 110.2  4.25 0.685  4.93  6157    28   791  5337  1763  3574     0  0.00     0     0  2418     0 100.7 8.852  45.3     0     0  2993   241  0.73  0.83  80.4  55.6 10.96  0.00  0.00  0.00  0.00  0.00  0.00   0.0  0.00  0.00  0.00  0.00
 2001 298    85    70  13.7  -6.0 36.69  8.07  0.98  2.78 167.8  4.54 0.734  5.27  6310    28   807  5475  1893  3581     0  0.00     0     0  2347     0 103.2 9.394  42.9     0     0  2993   240  0.74  0.83 116.3  53.8  7.17  0.00  0.00  0.00  0.00  0.00  0.00   0.0  0.00  0.00  0.00  0.00
 2001 299    86    71  15.1  -6.0 37.47  8.22  0.98  2.78 160.6  4.89 0.794  5.68  6457    28   822  5606  2060  3546     0  0.00     0     0  2221     0 105.9 10.01  39.6     0     0  2931   237  0.75  0.84 117.5  54.3  9.71  0.00  0.00  0.00  0.00  0.00  0.00   0.0  0.00  0.00  0.00  0.00
 2001 300    87    72  15.0  -6.0 38.25  8.38  0.99  2.78 314.8  5.23 0.864  6.10  6749    28   852  5868  2227  3641     0  0.00     0     0  2185     0 108.7 10.62  37.2     0     0  2871   235  0.76  0.84 114.9  27.0  4.95  0.00  0.00  0.00  0.00  0.00  0.00   0.0  0.00  0.00  0.00  0.00
 2001 301    88    73  13.0  -6.0 38.92  8.51  0.99  2.78 375.2  5.53 0.933  6.46  7097    28   887  6182  2373  3810     0  0.00     0     0  2211     0 111.1 11.18  35.8     0     0  2821   233  0.77  0.84 111.3  22.7  3.85  0.00  0.00  0.00  0.00  0.00  0.00   0.0  0.00  0.00  0.00  0.00
 2001 302    89    74  11.8  -6.0 39.53  8.63  0.99  2.78 334.9  5.80 0.996  6.79  7409    28   917  6463  2505  3958     0  0.00     0     0  2227     0 113.3 11.70  34.5     0     0  2777   231  0.78  0.85 108.3  25.3  4.34  0.00  0.00  0.00  0.00  0.00  0.00   0.0  0.00  0.00  0.00  0.00
 2001 303    90    75  14.6  -6.0 40.32  8.78  0.99  2.78 371.4  6.13 1.072  7.20  7754    28   950  6776  2668  4107     0  0.00     0     0  2220     0 116.0 12.37  32.8     0     0  2725   230  0.79  0.85 104.9  20.9  3.71  0.00  0.00  0.00  0.00  0.00  0.00   0.0  0.00  0.00  0.00  0.00
 2001 304    91    76  14.5  -6.0 41.16  8.78  0.99  2.78 381.7  6.05 1.122  7.17  8113    28   984  7101  2653  4433     0  0.00     0     0  2333    15 116.0 13.05  32.9     0     0  2674   228  0.81  0.85 101.3  19.5  3.61  0.00  0.00  0.00  0.00  0.00  0.00   0.0  0.00  0.00  0.00  0.00
 2001 305    92    77  14.3  -6.0 41.99  8.78  0.99  2.78 277.9  5.98 1.156  7.14  8374    28  1007  7339  2637  4672     0  0.00     0     0  2419    30 116.0 13.76  33.1     0     0  2626   227  0.82  0.86  99.1  26.1  4.99  0.00  0.00  0.00  0.00  0.00  0.00   0.0  0.00  0.00  0.00  0.00
 2001 306    93    78  13.5  -6.0 42.77  8.78  0.99  2.78 103.7  5.91 1.165  7.08  8471    28  1015  7428  2623  4761     0  0.00     0     0  2459    44 116.0 14.44  33.3     0     0  2582   225  0.83  0.86 102.2  74.2 13.88  0.00  0.00  0.00  0.00  0.00  0.00   0.0  0.00  0.00  0.00  0.00
 2001 307    94    79  12.1  -6.0 43.48  8.78  0.99  2.78 374.4  5.85 1.216  7.07  8825    28  1045  7751  2610  5085     0  0.00     0     0  2569    56 116.0 15.05  33.4     0     0  2543   224  0.84  0.86  98.7  20.6  4.00  0.00  0.00  0.00  0.00  0.00  0.00   0.0  0.00  0.00  0.00  0.00
 2001 308    95    80   9.8  -6.0 44.05  8.78  0.99  2.78 384.0  5.80 1.270  7.07  9188    28  1075  8084  2600  5418     0  0.00     0     0  2679    67 116.0 15.56  33.4     0     0  2512   223  0.85  0.87  98.0  21.0  4.07  0.00  0.00  0.00  0.00  0.00  0.00   0.0  0.00  0.02  0.00  0.00
 2001 309    96    81  10.8  -6.0 44.67  8.78  0.99  2.78 305.1  5.75 1.311  7.06  9476    28  1098  8350  2587  5685     0  0.00     0     0  2770    78 116.0 16.14  33.5     0     0  2480   222  0.86  0.87 106.1  28.4  5.11  0.00  0.00  0.00  0.00  0.00  0.00   0.0  0.00  0.00  0.00  0.00
 2001 310    97    82   8.9  -6.0 45.19  8.78  0.99  2.78 394.8  5.70 1.367  7.07  9851    28  1128  8695  2578  6030     0  0.00     0     0  2883    87 116.0 16.63  33.5     0     0  2454   221  0.86  0.87 102.4  21.8  4.09  0.00  0.00  0.00  0.00  0.00  0.00   0.0  0.00  0.11  0.00  0.00
 2001 311    98    83   9.4  -6.0 45.74  8.78  0.99  2.78 412.6  5.66 1.426  7.08 10242    28  1158  9056  2567  6392     0  0.00     0     0  3001    97 116.0 17.16  33.5     0     0  2427   220  0.87  0.88  98.4  19.7  3.87  0.00  0.00  0.00  0.00  0.00  0.00   0.0  0.00  0.06  0.00  0.00
 2001 312    99    84  11.0  -6.0 46.38  8.78  0.99  2.78 401.4  5.61 1.482  7.09 10623    28  1186  9409  2553  6747     0  0.00     0     0  3119   109 116.0 17.80  33.5     0     0  2396   220  0.88  0.88  94.4  18.7  3.84  0.00  0.00  0.00  0.00  0.00  0.00   0.0  0.00  0.00  0.00  0.00
 2001 313   100    85  11.1  -6.0 47.02  8.78  0.99  2.78 399.9  5.55 1.538  7.09 11004    28  1214  9761  2540  7101     0  0.00     0     0  3236   120 116.0 18.46  33.6     0     0  2366   219  0.89  0.88  96.2  19.2  3.89  0.00  0.00  0.00  0.00  0.00  0.00   0.0  0.00  0.00  0.00  0.00
 2001 314   101    86  11.0  -6.0 47.66  8.78  0.99  2.78 139.2  5.50 1.555  7.05 11136    28  1223  9885  2527  7225     0  0.00     0     0  3285   132 116.0 19.13  33.7     0     0  2337   218  0.90  0.89 110.2  64.4 11.49  0.00  0.00  0.00  0.00  0.00  0.00   0.0  0.00  0.00  0.00  0.00
 2001 315   102    87  11.7  -6.0 48.34  8.78  0.99  2.78 396.8  5.44 1.610  7.05 11514    28  1249 10237  2513  7580     0  0.00     0     0  3403   145 116.0 19.84  33.7     0     0  2307   217  0.91  0.89 110.1  22.1  3.96  0.00  0.00  0.00  0.00  0.00  0.00   0.0  0.00  0.00  0.00  0.00
 2001 316   103    88   8.9  -6.0 48.86  8.78  0.99  2.78 125.3  5.40 1.626  7.03 11634    28  1256 10349  2503  7641     0  0.00    51    51  3446   154 116.0 20.40  33.8     0     0  2285   216  0.91  0.89 113.3  76.6 13.42  0.00  0.00  0.00  0.00  0.00  0.00   0.0  0.00  0.11  0.00  0.00
 2001 317   104    89  11.7  -6.0 49.54  8.78  0.99  2.78 327.6  5.35 1.671  7.02 11947    28  1276 10642  2488  7762     0  0.00   226   184  3547   167 116.0 21.14  33.9     0     0  2256   215  0.92  0.89 110.0  26.6  4.82  0.00  0.00  0.00  0.00  0.00  0.00   0.0  0.00  0.00  0.00  0.00
 2001 318   105    90  11.4  -6.0 50.70  8.78  0.99  2.78 290.3  5.29 1.711  7.00 12224    28  1294 10902  2474  7799     0  0.00   451   303  3637   179 116.0 21.86  33.9     0     0  2229   214  0.93  0.90 109.5  30.3  5.54  0.00  0.00  0.00  0.00  0.00  0.00   0.0  0.00  0.00  0.00  0.00
 2001 319   106    91   9.6  -6.0 52.61  8.78  0.99  2.78 404.4  5.26 1.768  7.02 12612    28  1316 11268  2467  7909     0  0.00   705   469  3754   186 116.0 22.48  33.9     0     0  2207   213  0.94  0.90 104.9  21.6  4.14  0.00  0.00  0.00  0.00  0.00  0.00   0.0  0.00  0.04  0.00  0.00
 2001 320   107    92  10.0  -6.0 54.61  8.78  0.99  2.78 264.0  5.22 1.803  7.02 12867    28  1330 11508  2459  7917     0  0.00   939   578  3834   194 116.0 23.14  33.9     0     0  2184   212  0.95  0.91 102.0  31.5  6.27  0.00  0.00  0.00  0.00  0.00  0.00   0.0  0.00  0.00  0.00  0.00
 2001 321   108    93  14.1  -6.0 57.43  8.78  0.99  2.78 261.1  5.17 1.835  7.00 13118    28  1341 11749  2445  7972     0  0.00  1126   688  3918   206 116.0 24.07  33.9     0     0  2153   211  0.96  0.92  98.9  28.5  5.86  0.00  0.00  0.00  0.00  0.00  0.00   0.0  0.00  0.00  0.00  0.00
 2001 322   109    94  14.7  -6.0 60.93  8.78  0.99  2.78 138.7  5.11 1.847  6.96 13253    28  1346 11878  2433  7964     0  0.00  1264   747  3968   217 116.0 25.06  34.0     0     0  2121   210  0.97  0.93  97.8  52.2 10.90  0.00  0.00  0.00  0.00  0.00  0.00   0.0  0.00  0.00  0.00  0.00
 2001 323   110    95  16.0  -6.0 68.93  8.78  0.98  2.78 148.3  4.89 1.860  6.75 13397    28  1349 12019  2339  8019     0  0.00  1380   811  4074   281 116.0 26.14  34.7     0     0  2088   209  0.99  0.95  96.4  47.4 10.03  0.00  0.00  0.00  0.00  0.00  0.00   0.0  0.00  0.00  0.00  0.00
 2001 324   111    96  14.4  -6.0 70.94  8.78  0.98  2.78 265.6  4.65 1.895  6.54 13657    28  1355 12274  2237  8138     0  0.00  1549   927  4220   350 116.0 27.11  35.4     0     0  2058   208  1.00  0.96  94.0  26.9  5.84  0.00  0.00  0.00  0.00  0.00  0.00   0.0  0.00  0.00  0.00  0.00
 2001 325   112    97  13.4  -6.0 71.97  8.78  0.98  2.78 274.2  4.43 1.933  6.36 13927    28  1358 12541  2144  8202    25  0.00  1757  1073  4338   413 116.0 28.01  35.8 29809 .0001  2031   207  1.01  0.97  90.8  25.1  5.64  0.00  0.00  0.00  0.00  0.00  0.00   0.0  0.00  0.00  0.00  0.00
 2001 326   113    98  11.5  -6.0 72.86  8.78  0.97  2.78  38.0  4.23 1.925  6.15 13964    28  1358 12578  2056  8123    63  0.01  1865  1112  4395   471 116.0 28.80  36.5 29809 .0002  2009   206  1.02  0.98 112.2  99.9 15.00  0.00  0.00  0.00  0.00  0.00  0.00   0.0  0.00  0.00  0.00  0.00
 2001 327   114    99   8.1  -6.0 73.49  8.78  0.97  2.78 365.2  4.06 1.919  5.98 14326    28  1362 12936  1981  8396    91  0.01  1946  1140  4775   522 116.0 29.35  38.7 29809 .0003  1993   205  1.03  0.98 114.8  27.7  4.89  0.00  0.00  0.00  0.00  0.00  0.00   0.0  0.00  0.19  0.00  0.00
 2001 328   115   100   8.7  -6.0 74.15  8.78  0.96  2.78 377.1  3.94 1.914  5.85 14700    28  1365 13306  1927  8667   130  0.01  2024  1179  5141   557 116.0 29.94  40.7 29809 .0004  1977   204  1.03  0.98 110.5  25.0  4.57  0.00  0.00  0.00  0.00  0.00  0.00   0.0  0.00  0.13  0.00  0.00
 2001 329   116   101   9.6  -6.0 74.90  8.78  0.96  2.78 363.7  3.81 1.907  5.71 15060    28  1369 13662  1869  8914   187  0.01  2096  1236  5479   595 116.0 30.60  42.5 29809 .0006  1959   204  1.04  0.98 109.1  25.2  4.66  0.00  0.00  0.00  0.00  0.00  0.00   0.0  0.00  0.04  0.00  0.00
 2001 330   117   102  14.9  -6.0 76.05  8.78  0.96  2.78 415.6  3.66 1.898  5.56 15471    28  1373 14069  1805  9119   349  0.02  2159  1397  5767   638 116.0 31.62  44.1 29809 .0012  1933   203  1.05  0.98 103.7  18.7  3.62  0.00  0.00  0.00  0.00  0.00  0.00   0.0  0.00  0.00  0.00  0.00
 2001 331   118   103  11.3  -6.0 76.92  8.78  0.95  2.78 309.6  3.44 1.891  5.33 15777    28  1376 14373  1705  9287   463  0.03  2215  1511  6023   704 116.0 32.40  45.6 29809 .0016  1913   202  1.06  0.98 100.3  26.3  5.27  0.00  0.00  0.00  0.00  0.00  0.00   0.0  0.00  0.00  0.00  0.00
 2001 332   119   104  12.7  -6.0 77.89  8.78  0.94  2.78 406.7  3.27 1.883  5.15 16180    28  1380 14771  1628  9485   627  0.04  2277  1675  6307   754 116.0 33.27  47.1 29809 .0021  1892   201  1.07  0.98  95.1  18.3  3.86  0.00  0.00  0.00  0.00  0.00  0.00   0.0  0.00  0.00  0.00  0.00
 2001 333   120   105  12.7  -6.0 78.87  8.78  0.93  2.78 412.3  3.08 1.875  4.96 16588    28  1384 15176  1542  9672   815  0.05  2337  1863  6579   810 116.0 34.15  48.6 29809 .0027  1871   200  1.08  0.98  89.7  16.9  3.77  0.00  0.00  0.00  0.00  0.00  0.00   0.0  0.00  0.00  0.00  0.00
 2001 334   121   106  13.9  -6.0 79.94  8.78  0.91  2.78 201.2  2.90 1.866  4.76 16787    28  1386 15373  1455  9642  1069  0.07  2341  2118  6578   866 116.0 35.11  49.0 29809 .0036  1849   199  1.09  0.98  87.2  32.9  7.53  0.00  0.00  0.00  0.00  0.00  0.00   0.0  0.00  0.00  0.00  0.00
 2001 335   122   107  10.8  -6.0 80.16  8.78  0.90  2.78 397.0  2.69 1.860  4.55 17180    28  1390 15762  1358  9833  1239  0.08  2403  2287  6860   928 116.0 35.86  50.5 29809 .0042  1833   198  1.10  0.98  82.2  17.4  4.20  0.00  0.00  0.00  0.00  0.00  0.00   0.0  0.00  0.00  0.00  0.00
 2001 336   123   108  13.1  -6.0 80.37  8.78  0.89  2.78 403.7  2.63 1.852  4.48 17579    28  1394 16157  1333  9944  1499  0.09  2436  2547  7013   946 116.0 36.77  51.1 29809 .0050  1813   197  1.11  0.98  76.7  15.0  3.87  0.00  0.00  0.00  0.00  0.00  0.00   0.0  0.00  0.00  0.00  0.00
 2001 337   124   109  12.4  -6.0 80.56  8.78  0.89  2.78 305.6  2.57 1.845  4.41 17882    28  1396 16457  1306  9999  1734  0.11  2454  2782  7096   964 116.0 37.63  51.6 29809 .0058  1795   197  1.13  0.98  72.6  19.1  5.19  0.00  0.00  0.00  0.00  0.00  0.00   0.0  0.00  0.00  0.00  0.00
 2001 338   125   110  13.5  -6.0 80.78  8.78  0.88  2.78 123.4  2.51 1.837  4.34 18003    28  1397 16578  1280  9879  2012  0.12  2425  3061  6956   982 116.0 38.57  51.2 29809 .0068  1776   196  1.14  0.98  75.1  48.4  9.23  0.00  0.00  0.00  0.00  0.00  0.00   0.0  0.00  0.00  0.00  0.00
 2001 339   126   111  16.0  -6.0 81.03  8.78  0.87  2.78 389.8  2.44 1.827  4.27 18389    28  1400 16960  1252  9876  2403  0.14  2428  3452  6966  1001 116.0 39.69  51.4 29809 .0081  1754   195  1.15  0.98  69.4  13.3  2.34  0.00  0.00  0.00  0.00  0.00  0.00   0.0  0.00  0.00  0.00  0.00
 2001 340   127   112  14.4  -6.0 81.26  8.78  0.87  2.78 244.4  2.36 1.819  4.18 18630    28  1402 17199  1218  9821  2718  0.16  2418  3766  6914  1024 116.0 40.70  51.4 29809 .0091  1735   194  1.16  0.98  66.2  21.0  1.87  0.00  0.00  0.00  0.00  0.00  0.00   0.0  0.00  0.00  0.00  0.00
 2001 341   128   113  12.2  -6.0 81.45  8.78  0.86  1.73 237.5  2.29 1.813  4.11 18865    28  1404 17432  1187  9832  2944  0.17  2425  3992  6941  1044 116.0 41.55  51.6 29809 .0099  1719   193  1.17  0.98  62.9  13.4  0.62  0.76  0.38  0.52  0.00  0.00  0.00   0.0  0.00  0.00  0.00  0.00
 2001 342   129   114  14.5  -6.0 81.68  8.78  0.84  1.21 170.2  2.19 1.805  3.99 19033    28  1405 17599  1138  9717  3267  0.19  2401  4315  6817  1076 116.0 42.57  51.4 29809 .0110  1700   192  1.19  0.98  61.1  11.9  0.43  1.00  0.57  0.67  0.00  0.00  0.00   0.0  0.00  0.00  0.00  0.00
 2001 343   130   115  16.1  -6.0 81.94  8.78  0.83  1.26 140.3  2.07 1.796  3.87 19171    28  1406 17736  1083  9524  3661  0.21  2358  4709  6596  1111 116.0 43.70  50.9 29809 .0123  1680   191  1.20  0.98  59.7  14.2  0.45  1.00  0.55  0.65  0.00  0.00  0.00   0.0  0.00  0.00  0.00  0.00
 2001 344   131   116  14.9  -6.0 82.17  8.78  0.82  1.71 129.2  2.00 1.788  3.78 19298    28  1406 17863  1048  9361  4000  0.22  2320  5048  6406  1134 116.0 44.75  50.3 29809 .0134  1662   190  1.21  0.98  58.4  21.5  0.62  0.77  0.38  0.53  0.00  0.00  0.00   0.0  0.00  0.00  0.00  0.00
 2001 345   132   117  18.7  -6.0 82.47  8.78  0.80  1.02 105.8  1.88 1.778  3.66 19402    28  1406 17967   994  9091  4457  0.25  2256  5505  6087  1168 116.0 46.06  49.3 29809 .0150  1639   189  1.23  0.98  57.5  14.2  0.37  1.00  0.63  0.72  0.00  0.00  0.00   0.0  0.00  0.00  0.00  0.00
 2001 346   133   118  19.5  -6.0 82.78  8.78  0.78  1.12  91.5  1.76 1.768  3.52 19491    28  1406 18057   933  8797  4932  0.27  2187  5981  5740  1208 116.0 47.43  48.2 29809 .0165  1616   188  1.25  0.98  56.8  17.5  0.40  1.00  0.60  0.69  0.00  0.00  0.00   0.0  0.00  0.00  0.00  0.00
[...]
 2000  36   188   173  10.8  -6.0 99.00  8.71  0.00  0.00   0.0  0.00 1.162  1.16 15007    28  1319 13660     0  3053  7984  0.58   709  8694     0  1913 108.7 78.13   0.0 26545 .0301  1064   -99  1.41  0.98  87.9  99.9 15.00  0.00  0.00  0.00  0.00  0.00  0.00   0.0  0.00  0.00  0.00  0.00
 2000  37   189   174  13.6  -6.0 99.00  8.71  0.00  0.00   0.0  0.00 1.159  1.16 15007    28  1319 13660     0  3053  7984  0.58   709  8694     0  1913 108.7 78.13   0.0 26545 .0301  1064   -99  1.41  0.98  84.9  99.9 15.00  0.00  0.00  0.00  0.00  0.00  0.00   0.0  0.00  0.00  0.00  0.00
 2000  38   190   175  14.8  -6.0 99.00  8.71  0.00  0.00   0.0  0.00 1.156  1.16 15007    28  1319 13660     0  3053  7984  0.58   709  8694     0  1913 108.7 78.13   0.0 26545 .0301  1064   -99  1.41  0.98  84.2  99.9 15.00  0.00  0.00  0.00  0.00  0.00  0.00   0.0  0.00  0.00  0.00  0.00
 2000  39   191   176  13.2  -6.0 99.00  8.71  0.00  0.00   0.0  0.00 1.153  1.15 15007    28  1319 13660     0  3053  7984  0.58   709  8694     0  1913 108.7 78.13   0.0 26545 .0301  1064   -99  1.41  0.98 102.6  99.9 15.00  0.00  0.00  0.00  0.00  0.00  0.00   0.0  0.00  0.00  0.00  0.00
 2000  40   192   177  16.0  -6.0 99.00  8.71  0.00  0.00   0.0  0.00 1.149  1.15 15007    28  1319 13660     0  3053  7984  0.58   709  8694     0  1913 108.7 78.13   0.0 26545 .0301  1064   -99  1.41  0.98 137.2  99.9 15.00  0.00  0.00  0.00  0.00  0.00  0.00   0.0  0.00  0.00  0.00  0.00
 2000  41   193   178  16.2  -6.0 99.00  8.71  0.00  0.00   0.0  0.00 1.146  1.15 15007    28  1319 13660     0  3053  7984  0.58   709  8694     0  1913 108.7 78.13   0.0 26545 .0301  1064   -99  1.41  0.98 145.3  99.9 15.00  0.00  0.00  0.00  0.00  0.00  0.00   0.0  0.00  0.00  0.00  0.00
 2000  42   194   179  12.3  -6.0 99.00  8.71  0.00  0.00   0.0  0.00 1.144  1.14 15007    28  1319 13660     0  3053  7984  0.58   709  8694     0  1913 108.7 78.13   0.0 26545 .0301  1064   -99  1.41  0.98 149.9  99.9 15.00  0.00  0.00  0.00  0.00  0.00  0.00   0.0  0.00  0.00  0.00  0.00
 2000  43   195   180  10.9  -6.0 99.00  8.71  0.00  0.00   0.0  0.00 1.141  1.14 15007    28  1319 13660     0  3053  7984  0.58   709  8694     0  1913 108.7 78.13   0.0 26545 .0301  1064   -99  1.41  0.98 148.5  99.9 15.00  0.00  0.00  0.00  0.00  0.00  0.00   0.0  0.00  0.00  0.00  0.00
 2000  44   196   181  10.6  -6.0 99.00  8.71  0.00  0.00   0.0  0.00 1.139  1.14 15007    28  1319 13660     0  3053  7984  0.58   709  8694     0  1913 108.7 78.13   0.0 26545 .0301  1064   -99  1.41  0.98 144.3  99.9 15.00  0.00  0.00  0.00  0.00  0.00  0.00   0.0  0.00  0.00  0.00  0.00
 2000  45   197   182  15.5  -6.0 99.00  8.71  0.00  0.00   0.0  0.00 1.136  1.14 15007    28  1319 13660     0  3053  7984  0.58   709  8694     0  1913 108.7 78.13   0.0 26545 .0301  1064   -99  1.41  0.98 139.6  99.9 15.00  0.00  0.00  0.00  0.00  0.00  0.00   0.0  0.00  0.00  0.00  0.00
 2000  46   198   183  17.9  -6.0 99.00  8.71  0.00  0.00   0.0  0.00 1.133  1.13 15007    28  1319 13660     0  3053  7984  0.58   709  8694     0  1913 108.7 78.13   0.0 26545 .0301  1064   -99  1.41  0.98 136.5  99.9 15.00  0.00  0.00  0.00  0.00  0.00  0.00   0.0  0.00  0.00  0.00  0.00
 2000  47   199   184  17.0  -6.0 99.00  8.71  0.00  0.00   0.0  0.00 1.129  1.13 15007    28  1319 13660     0  3053  7984  0.58   709  8694     0  1913 108.7 78.13   0.0 26545 .0301  1064   -99  1.41  0.98 136.2  99.9 15.00  0.00  0.00  0.00  0.00  0.00  0.00   0.0  0.00  0.00  0.00  0.00
 2000  48   200   185  13.1  -6.0 99.00  8.71  0.00  0.00   0.0  0.00 1.127  1.13 15007    28  1319 13660     0  3053  7984  0.58   709  8694     0  1913 108.7 78.13   0.0 26545 .0301  1064   -99  1.41  0.98 133.7  99.9 15.00  0.00  0.00  0.00  0.00  0.00  0.00   0.0  0.00  0.00  0.00  0.00
 2000  49   201   186  15.3  -6.0 99.00  8.71  0.00  0.00   0.0  0.00 1.124  1.12 15007    28  1319 13660     0  3053  7984  0.58   709  8694     0  1913 108.7 78.13   0.0 26545 .0301  1064   -99  1.41  0.98 131.1  99.9 15.00  0.00  0.00  0.00  0.00  0.00  0.00   0.0  0.00  0.00  0.00  0.00
 2000  50   202   187  18.2  -6.0 99.00  8.71  0.00  0.00   0.0  0.00 1.121  1.12 15007    28  1319 13660     0  3053  7984  0.58   709  8694     0  1913 108.7 78.13   0.0 26545 .0301  1064   -99  1.41  0.98 128.7  99.9 15.00  0.00  0.00  0.00  0.00  0.00  0.00   0.0  0.00  0.00  0.00  0.00
 2000  51   203   188  17.7  -6.0 99.00  8.71  0.00  0.00   0.0  0.00 1.118  1.12 15007    28  1319 13660     0  3053  7984  0.58   709  8694     0  1913 108.7 78.13   0.0 26545 .0301  1064   -99  1.41  0.98 126.5  99.9 15.00  0.00  0.00  0.00  0.00  0.00  0.00   0.0  0.00  0.00  0.00  0.00
 2000  52   204   189  14.9  -6.0 99.00  8.71  0.00  0.00   0.0  0.00 1.115  1.11 15007    28  1319 13660     0  3053  7984  0.58   709  8694     0  1913 108.7 78.13   0.0 26545 .0301  1064   -99  1.41  0.98 124.5  99.9 15.00  0.00  0.00  0.00  0.00  0.00  0.00   0.0  0.00  0.00  0.00  0.00
 2000  53   205   190  12.9  -6.0 99.00  8.71  0.00  0.00   0.0  0.00 1.113  1.11 15007    28  1319 13660     0  3053  7984  0.58   709  8694     0  1913 108.7 78.13   0.0 26545 .0301  1064   -99  1.41  0.98 122.6  99.9 15.00  0.00  0.00  0.00  0.00  0.00  0.00   0.0  0.00  0.00  0.00  0.00
 2000  54   206   191  13.8  -6.0 99.00  8.71  0.00  0.00   0.0  0.00 1.110  1.11 15007    28  1319 13660     0  3053  7984  0.58   709  8694     0  1913 108.7 78.13   0.0 26545 .0301  1064   -99  1.41  0.98 120.9  99.9 15.00  0.00  0.00  0.00  0.00  0.00  0.00   0.0  0.00  0.00  0.00  0.00
 2000  55   207   192  14.5  -6.0 99.00  8.71  0.00  0.00   0.0  0.00 1.108  1.11 15007    28  1319 13660     0  3053  7984  0.58   709  8694     0  1913 108.7 78.13   0.0 26545 .0301  1064   -99  1.41  0.98 119.4  99.9 15.00  0.00  0.00  0.00  0.00  0.00  0.00   0.0  0.00  0.00  0.00  0.00
 2000  56   208   193  15.9  -6.0 99.00  8.71  0.00  0.00   0.0  0.00 1.105  1.11 15007    28  1319 13660     0  3053  7984  0.58   709  8694     0  1913 108.7 78.13   0.0 26545 .0301  1064   -99  1.41  0.98 120.8  99.9 15.00  0.00  0.00  0.00  0.00  0.00  0.00   0.0  0.00  0.00  0.00  0.00
 2000  57   209   194  14.0  -6.0 99.00  8.71  0.00  0.00   0.0  0.00 1.103  1.10 15007    28  1319 13660     0  3053  7984  0.58   709  8694     0  1913 108.7 78.13   0.0 26545 .0301  1064   -99  1.41  0.98 121.5  99.9 15.00  0.00  0.00  0.00  0.00  0.00  0.00   0.0  0.00  0.00  0.00  0.00
 2000  58   210   195  12.3  -6.0 99.00  8.71  0.00  0.00   0.0  0.00 1.101  1.10 15007    28  1319 13660     0  3053  7984  0.58   709  8694     0  1913 108.7 78.13   0.0 26545 .0301  1064   -99  1.41  0.98 121.7  99.9 15.00  0.00  0.00  0.00  0.00  0.00  0.00   0.0  0.00  0.00  0.00  0.00
 2000  59   211   196  11.5  -6.0 99.00  8.71  0.00  0.00   0.0  0.00 1.099  1.10 15007    28  1319 13660     0  3053  7984  0.58   709  8694     0  1913 108.7 78.13   0.0 26545 .0301  1064   -99  1.41  0.98 119.9  99.9 15.00  0.00  0.00  0.00  0.00  0.00  0.00   0.0  0.00  0.00  0.00  0.00
 2000  60   212   197  10.8  -6.0 99.00  8.71  0.00  0.00   0.0  0.00 1.097  1.10 15007    28  1319 13660     0  3053  7984  0.58   709  8694     0  1913 108.7 78.13   0.0 26545 .0301  1064   -99  1.41  0.98 118.2  99.9 15.00  0.00  0.00  0.00  0.00  0.00  0.00   0.0  0.00  0.00  0.00  0.00
 2000  61   213   198  10.6  -6.0 99.00  8.71  0.00  0.00   0.0  0.00 1.096  1.10 15007    28  1319 13660     0  3053  7984  0.58   709  8694     0  1913 108.7 78.13   0.0 26545 .0301  1064   -99  1.41  0.98 116.6  99.9 15.00  0.00  0.00  0.00  0.00  0.00  0.00   0.0  0.00  0.00  0.00  0.00
 2000  62   214   199  10.1  -6.0 99.00  8.71  0.00  0.00   0.0  0.00 1.094  1.09 15007    28  1319 13660     0  3053  7984  0.58   709  8694     0  1913 108.7 78.13   0.0 26545 .0301  1064   -99  1.41  0.98 115.1  99.9 15.00  0.00  0.00  0.00  0.00  0.00  0.00   0.0  0.00  0.00  0.00  0.00
 2000  63   215   200  11.5  -6.0 99.00  8.71  0.00  0.00   0.0  0.00 1.092  1.09 15007    28  1319 13660     0  3053  7984  0.58   709  8694     0  1913 108.7 78.13   0.0 26545 .0301  1064   -99  1.41  0.98 113.8  99.9 15.00  0.00  0.00  0.00  0.00  0.00  0.00   0.0  0.00  0.00  0.00  0.00
 2000  64   216   201   9.3  -6.0 99.00  8.71  0.00  0.00   0.0  0.00 1.091  1.09 15007    28  1319 13660     0  3053  7984  0.58   709  8694     0  1913 108.7 78.13   0.0 26545 .0301  1064   -99  1.41  0.98 112.6  99.9 15.00  0.00  0.00  0.00  0.00  0.00  0.00   0.0  0.00  0.07  0.00  0.00
 2000  65   217   202  10.2  -6.0 99.00  8.71  0.00  0.00   0.0  0.00 1.089  1.09 15007    28  1319 13660     0  3053  7984  0.58   709  8694     0  1913 108.7 78.13   0.0 26545 .0301  1064   -99  1.41  0.98 111.9  99.9 15.00  0.00  0.00  0.00  0.00  0.00  0.00   0.0  0.00  0.00  0.00  0.00
 2000  66   218   203  13.5  -6.0 99.00  8.71  0.00  0.00   0.0  0.00 1.087  1.09 15007    28  1319 13660     0  3053  7984  0.58   709  8694     0  1913 108.7 78.13   0.0 26545 .0301  1064   -99  1.41  0.98 111.4  99.9 15.00  0.00  0.00  0.00  0.00  0.00  0.00   0.0  0.00  0.00  0.00  0.00
 2000  67   219   204  14.7  -6.0 99.00  8.71  0.00  0.00   0.0  0.00 1.085  1.09 15007    28  1319 13660     0  3053  7984  0.58   709  8694     0  1913 108.7 78.13   0.0 26545 .0301  1064   -99  1.41  0.98 111.0  99.9 15.00  0.00  0.00  0.00  0.00  0.00  0.00   0.0  0.00  0.00  0.00  0.00
 2000  68   220   205  13.9  -6.0 99.00  8.71  0.00  0.00   0.0  0.00 1.083  1.08 15007    28  1319 13660     0  3053  7984  0.58   709  8694     0  1913 108.7 78.13   0.0 26545 .0301  1064   -99  1.41  0.98 110.5  99.9 15.00  0.00  0.00  0.00  0.00  0.00  0.00   0.0  0.00  0.00  0.00  0.00
 2000  69   221   206  15.9  -6.0 99.00  8.71  0.00  0.00   0.0  0.00 1.081  1.08 15007    28  1319 13660     0  3053  7984  0.58   709  8694     0  1913 108.7 78.13   0.0 26545 .0301  1064   -99  1.41  0.98 110.3  99.9 15.00  0.00  0.00  0.00  0.00  0.00  0.00   0.0  0.00  0.00  0.00  0.00
 2000  70   222   207  15.6  -6.0 99.00  8.71  0.00  0.00   0.0  0.00 1.079  1.08 15007    28  1319 13660     0  3053  7984  0.58   709  8694     0  1913 108.7 78.13   0.0 26545 .0301  1064   -99  1.41  0.98 109.6  99.9 15.00  0.00  0.00  0.00  0.00  0.00  0.00   0.0  0.00  0.00  0.00  0.00
 2000  71   223   208  14.9  -6.0 99.00  8.71  0.00  0.00   0.0  0.00 1.077  1.08 15007    28  1319 13660     0  3053  7984  0.58   709  8694     0  1913 108.7 78.13   0.0 26545 .0301  1064   -99  1.41  0.98 112.8  99.9 15.00  0.00  0.00  0.00  0.00  0.00  0.00   0.0  0.00  0.00  0.00  0.00
 2000  72   224   209  13.6  -6.0 99.00  8.71  0.00  0.00   0.0  0.00 1.075  1.07 15007    28  1319 13660     0  3053  7984  0.58   709  8694     0  1913 108.7 78.13   0.0 26545 .0301  1064   -99  1.41  0.98 119.7  99.9 15.00  0.00  0.00  0.00  0.00  0.00  0.00   0.0  0.00  0.00  0.00  0.00
 2000  73   225   210  10.6  -6.0 99.00  8.71  0.00  0.00   0.0  0.00 1.073  1.07 15007    28  1319 13660     0  3053  7984  0.58   709  8694     0  1913 108.7 78.13   0.0 26545 .0301  1064   -99  1.41  0.98 127.3  99.9 15.00  0.00  0.00  0.00  0.00  0.00  0.00   0.0  0.00  0.00  0.00  0.00
 2000  74   226   211  15.5  -6.0 99.00  8.71  0.00  0.00   0.0  0.00 1.071  1.07 15007    28  1319 13660     0  3053  7984  0.58   709  8694     0  1913 108.7 78.13   0.0 26545 .0301  1064   -99  1.41  0.98 127.2  99.9 15.00  0.00  0.00  0.00  0.00  0.00  0.00   0.0  0.00  0.00  0.00  0.00
 2000  75   227   212  13.0  -6.0 99.00  8.71  0.00  0.00   0.0  0.00 1.070  1.07 15007    28  1319 13660     0  3053  7984  0.58   709  8694     0  1913 108.7 78.13   0.0 26545 .0301  1064   -99  1.41  0.98 125.3  99.9 15.00  0.00  0.00  0.00  0.00  0.00  0.00   0.0  0.00  0.00  0.00  0.00
 2000  76   228   213  10.1  -6.0 99.00  8.71  0.00  0.00   0.0  0.00 1.068  1.07 15007    28  1319 13660     0  3053  7984  0.58   709  8694     0  1913 108.7 78.13   0.0 26545 .0301  1064   -99  1.41  0.98 122.6  99.9 15.00  0.00  0.00  0.00  0.00  0.00  0.00   0.0  0.00  0.00  0.00  0.00
 2000  77   229   214  11.1  -6.0 99.00  8.71  0.00  0.00   0.0  0.00 1.067  1.07 15007    28  1319 13660     0  3053  7984  0.58   709  8694     0  1913 108.7 78.13   0.0 26545 .0301  1064   -99  1.41  0.98 120.0  99.9 15.00  0.00  0.00  0.00  0.00  0.00  0.00   0.0  0.00  0.00  0.00  0.00
 2000  78   230   215  11.2  -6.0 99.00  8.71  0.00  0.00   0.0  0.00 1.065  1.07 15007    28  1319 13660     0  3053  7984  0.58   709  8694     0  1913 108.7 78.13   0.0 26545 .0301  1064   -99  1.41  0.98 117.9  99.9 15.00  0.00  0.00  0.00  0.00  0.00  0.00   0.0  0.00  0.00  0.00  0.00
 2000  79   231   216  10.6  -6.0 99.00  8.71  0.00  0.00   0.0  0.00 1.064  1.06 15007    28  1319 13660     0  3053  7984  0.58   709  8694     0  1913 108.7 78.13   0.0 26545 .0301  1064   -99  1.41  0.98 115.8  99.9 15.00  0.00  0.00  0.00  0.00  0.00  0.00   0.0  0.00  0.00  0.00  0.00
 2000  80   232   217   5.3  -6.0 99.00  8.71  0.00  0.00   0.0  0.00 1.063  1.06 15007    28  1319 13660     0  3053  7984  0.58   709  8694     0  1913 108.7 78.13   0.0 26545 .0301  1064   -99  1.41  0.98 121.2  99.9 15.00  0.00  0.00  0.00  0.00  0.00  0.00   0.0  0.00  0.47  0.00  0.00
 2000  81   233   218   9.8  -6.0 99.00  8.71  0.00  0.00   0.0  0.00 1.062  1.06 15007    28  1319 13660     0  3053  7984  0.58   709  8694     0  1913 108.7 78.13   0.0 26545 .0301  1064   -99  1.41  0.98 118.9  99.9 15.00  0.00  0.00  0.00  0.00  0.00  0.00   0.0  0.00  0.02  0.00  0.00
 2000  82   234   219   7.3  -6.0 99.00  8.71  0.00  0.00   0.0  0.00 1.061  1.06 15007    28  1319 13660     0  3053  7984  0.58   709  8694     0  1913 108.7 78.13   0.0 26545 .0301  1064   -99  1.41  0.98 122.0  99.9 15.00  0.00  0.00  0.00  0.00  0.00  0.00   0.0  0.00  0.26  0.00  0.00
 2000  83   235   220  12.4  -6.0 99.00  8.71  0.00  0.00   0.0  0.00 1.060  1.06 15007    28  1319 13660     0  3053  7984  0.58   709  8694     0  1913 108.7 78.13   0.0 26545 .0301  1064   -99  1.41  0.98 123.1  99.9 15.00  0.00  0.00  0.00  0.00  0.00  0.00   0.0  0.00  0.00  0.00  0.00
 2000  84   236   221  14.6  -6.0 99.00  8.71  0.00  0.00   0.0  0.00 1.058  1.06 15007    28  1319 13660     0  3053  7984  0.58   709  8694     0  1913 108.7 78.13   0.0 26545 .0301  1064   -99  1.41  0.98 121.1  99.9 15.00  0.00  0.00  0.00  0.00  0.00  0.00   0.0  0.00  0.00  0.00  0.00
 2000  85   237   222  14.0  -6.0 99.00  8.71  0.00  0.00   0.0  0.00 1.056  1.06 15007    28  1319 13660     0  3053  7984  0.58   709  8694     0  1913 108.7 78.13   0.0 26545 .0301  1064   -99  1.41  0.98 123.2  99.9 15.00  0.00  0.00  0.00  0.00  0.00  0.00   0.0  0.00  0.00  0.00  0.00
 2000  86   238   223  10.2  -6.0 99.00  8.71  0.00  0.00   0.0  0.00 1.055  1.06 15007    28  1319 13660     0  3053  7984  0.58   709  8694     0  1913 108.7 78.13   0.0 26545 .0301  1064   -99  1.41  0.98 120.7  99.9 15.00  0.00  0.00  0.00  0.00  0.00  0.00   0.0  0.00  0.00  0.00  0.00
 2000  87   239   224   5.3  -6.0 99.00  8.71  0.00  0.00   0.0  0.00 1.055  1.05 15007    28  1319 13660     0  3053  7984  0.58   709  8694     0  1913 108.7 78.13   0.0 26545 .0301  1064   -99  1.41  0.98 118.6  99.9 15.00  0.00  0.00  0.00  0.00  0.00  0.00   0.0  0.00  0.47  0.00  0.00
 2000  88   240   225   9.2  -6.0 99.00  8.71  0.00  0.00   0.0  0.00 1.054  1.05 15007    28  1319 13660     0  3053  7984  0.58   709  8694     0  1913 108.7 78.13   0.0 26545 .0301  1064   -99  1.41  0.98 116.2  99.9 15.00  0.00  0.00  0.00  0.00  0.00  0.00   0.0  0.00  0.08  0.00  0.00
 2000  89   241   226   8.1  -6.0 99.00  8.71  0.00  0.00   0.0  0.00 1.053  1.05 15007    28  1319 13660     0  3053  7984  0.58   709  8694     0  1913 108.7 78.13   0.0 26545 .0301  1064   -99  1.41  0.98 114.4  99.9 15.00  0.00  0.00  0.00  0.00  0.00  0.00   0.0  0.00  0.19  0.00  0.00
 2000  90   242   227   8.6  -6.0 99.00  8.71  0.00  0.00   0.0  0.00 1.052  1.05 15007    28  1319 13660     0  3053  7984  0.58   709  8694     0  1913 108.7 78.13   0.0 26545 .0301  1064   -99  1.41  0.98 112.3  99.9 15.00  0.00  0.00  0.00  0.00  0.00  0.00   0.0  0.00  0.14  0.00  0.00
 2000  91   243   228   8.8  -6.0 99.00  8.71  0.00  0.00   0.0  0.00 1.051  1.05 15007    28  1319 13660     0  3053  7984  0.58   709  8694     0  1913 108.7 78.13   0.0 26545 .0301  1064   -99  1.41  0.98 110.5  99.9 15.00  0.00  0.00  0.00  0.00  0.00  0.00   0.0  0.00  0.12  0.00  0.00
 2000  92   244   229  14.3  -6.0 99.00  8.71  0.00  0.00   0.0  0.00 1.049  1.05 15007    28  1319 13660     0  3053  7984  0.58   709  8694     0  1913 108.7 78.13   0.0 26545 .0301  1064   -99  1.41  0.98 108.7  99.9 15.00  0.00  0.00  0.00  0.00  0.00  0.00   0.0  0.00  0.00  0.00  0.00
 2000  93   245   230  12.9  -6.0 99.00  8.71  0.00  0.00   0.0  0.00 1.048  1.05 15007    28  1319 13660     0  3053  7984  0.58   709  8694     0  1913 108.7 78.13   0.0 26545 .0301  1064   -99  1.41  0.98 107.7  99.9 15.00  0.00  0.00  0.00  0.00  0.00  0.00   0.0  0.00  0.00  0.00  0.00
 2000  94   246   231  14.4  -6.0 99.00  8.71  0.00  0.00   0.0  0.00 1.046  1.05 15007    28  1319 13660     0  3053  7984  0.58   709  8694     0  1913 108.7 78.13   0.0 26545 .0301  1064   -99  1.41  0.98 107.7  99.9 15.00  0.00  0.00  0.00  0.00  0.00  0.00   0.0  0.00  0.00  0.00  0.00
 2000  95   247   232  14.8  -6.0 99.00  8.71  0.00  0.00   0.0  0.00 1.045  1.04 15007    28  1319 13660     0  3053  7984  0.58   709  8694     0  1913 108.7 78.13   0.0 26545 .0301  1064   -99  1.41  0.98 112.8  99.9 15.00  0.00  0.00  0.00  0.00  0.00  0.00   0.0  0.00  0.00  0.00  0.00
 2000  96   248   233  11.3  -6.0 99.00  8.71  0.00  0.00   0.0  0.00 1.043  1.04 15007    28  1319 13660     0  3053  7984  0.58   709  8694     0  1913 108.7 78.13   0.0 26545 .0301  1064   -99  1.41  0.98 110.9  99.9 15.00  0.00  0.00  0.00  0.00  0.00  0.00   0.0  0.00  0.00  0.00  0.00
 2000  97   249   234   9.9  -6.0 99.00  8.71  0.00  0.00   0.0  0.00 1.042  1.04 15007    28  1319 13660     0  3053  7984  0.58   709  8694     0  1913 108.7 78.13   0.0 26545 .0301  1064   -99  1.41  0.98 110.3  99.9 15.00  0.00  0.00  0.00  0.00  0.00  0.00   0.0  0.00  0.01  0.00  0.00
 2000  98   250   235  10.2  -6.0 99.00  8.71  0.00  0.00   0.0  0.00 1.041  1.04 15007    28  1319 13660     0  3053  7984  0.58   709  8694     0  1913 108.7 78.13   0.0 26545 .0301  1064   -99  1.41  0.98 121.7  99.9 15.00  0.00  0.00  0.00  0.00  0.00  0.00   0.0  0.00  0.00  0.00  0.00
 2000  99   251   236  10.4  -6.0 99.00  8.71  0.00  0.00   0.0  0.00 1.040  1.04 15007    28  1319 13660     0  3053  7984  0.58   709  8694     0  1913 108.7 78.13   0.0 26545 .0301  1064   -99  1.41  0.98 119.1  99.9 15.00  0.00  0.00  0.00  0.00  0.00  0.00   0.0  0.00  0.00  0.00  0.00
 2000 100   252   237   5.6  -6.0 99.00  8.71  0.00  0.00   0.0  0.00 1.040  1.04 15007    28  1319 13660     0  3053  7984  0.58   709  8694     0  1913 108.7 78.13   0.0 26545 .0301  1064   -99  1.41  0.98 116.7  99.9 15.00  0.00  0.00  0.00  0.00  0.00  0.00   0.0  0.00  0.44  0.00  0.00
 2000 101   253   238   5.2  -6.0 99.00  8.71  0.00  0.00   0.0  0.00 1.039  1.04 15007    28  1319 13660     0  3053  7984  0.58   709  8694     0  1913 108.7 78.13   0.0 26545 .0301  1064   -99  1.41  0.98 114.4  99.9 15.00  0.00  0.00  0.00  0.00  0.00  0.00   0.0  0.00  0.48  0.00  0.00
 2000 102   254   239   8.7  -6.0 99.00  8.71  0.00  0.00   0.0  0.00 1.038  1.04 15007    28  1319 13660     0  3053  7984  0.58   709  8694     0  1913 108.7 78.13   0.0 26545 .0301  1064   -99  1.41  0.98 112.1  99.9 15.00  0.00  0.00  0.00  0.00  0.00  0.00   0.0  0.00  0.13  0.00  0.00
 2000 103   255   240   8.0  -6.0 99.00  8.71  0.00  0.00   0.0  0.00 1.038  1.04 15007    28  1319 13660     0  3053  7984  0.58   709  8694     0  1913 108.7 78.13   0.0 26545 .0301  1064   -99  1.41  0.98 110.7  99.9 15.00  0.00  0.00  0.00  0.00  0.00  0.00   0.0  0.00  0.20  0.00  0.00
